
###############################################################################
#
# This file contains modified crystal structure data generated from the
# MOF subset of the Cambridge Structural Database (CSD) v542 
# hosted by the Cambridge Crystallographic Data Centre (CCDC).
#
# This work is licensed under the Creative Commons
# Attribution-NonCommercial-ShareAlike 4.0 International License.
# To view a copy of this license, visit
# http://creativecommons.org/licenses/by-nc-sa/4.0/
# or send a letter to
# Creative Commons, PO Box 1866, Mountain View, CA 94042, USA.
#
# CIF created using the CSD Python API on 22 February 2021
# The structure has been converted into the P1 space group
# The structure has a 3D framework
# The original CSD entry AVUPIR is in the rhombohedral crystal system
# The framework has been calculated to contain at least 10.0% void space
# The void calculation uses a probe of radius 1.32A, grid spacing 0.4
# H atom positions have been added when not included in the experimental data
#
###############################################################################

data_AVUPIR
_chemical_formula_moiety         '(C54 H144 N18 O51 P18 Zr12)n'
_symmetry_cell_setting           triclinic
_symmetry_space_group_name_H-M   'P 1'
_symmetry_Int_Tables_number      1
_space_group_name_Hall           'P 1'
loop_
_symmetry_equiv_pos_site_id
_symmetry_equiv_pos_as_xyz
1 x,y,z
_cell_length_a                   19.9400(9)
_cell_length_b                   19.9400(9)
_cell_length_c                   9.5728(6)
_cell_angle_alpha                90
_cell_angle_beta                 90
_cell_angle_gamma                120
_cell_volume                     3296.25
loop_
_atom_site_label
_atom_site_type_symbol
_atom_site_fract_x
_atom_site_fract_y
_atom_site_fract_z
_atom_site_U_iso_or_equiv
_atom_site_thermal_displace_type
Zr1 Zr 0.0000 0.0000 0.0000 0.0100 Uiso
Zr2 Zr -0.0000 -0.0000 0.5000 0.0100 Uiso
P1 P 0.1351(4) 0.1131(4) 0.2478(9) 0.0420 Uiso
O1 O 0.0807(4) 0.0712(4) 0.3746(5) 0.0550 Uiso
C1 C 0.1191(11) 0.1926(6) 0.1944(16) 0.0550 Uiso
N1 N 0.1526(12) 0.2663(6) 0.2655(15) 0.0550 Uiso
O2 O 0.2248(6) 0.1457(9) 0.2742(14) 0.0550 Uiso
C2 C 0.1791(14) 0.3325(10) 0.1633(11) 0.0550 Uiso
C3 C 0.1573(14) 0.2717(9) 0.4158(15) 0.0550 Uiso
O3 O 0.0897(4) 0.0530(4) 0.1235(5) 0.0550 Uiso
Zr3 Zr 0.3333 0.6667 0.6667 0.0100 Uiso
Zr6 Zr 0.3333 0.6667 0.1667 0.0100 Uiso
P2 P 0.1982(4) 0.5536(4) 0.4189(9) 0.0420 Uiso
O4 O 0.2526(4) 0.5955(4) 0.2921(5) 0.0550 Uiso
O11 O 0.0095(6) 0.0807(4) 0.6254(5) 0.0550 Uiso
C4 C 0.2142(11) 0.4741(6) 0.4723(16) 0.0550 Uiso
N2 N 0.1807(12) 0.4004(6) 0.4012(15) 0.0550 Uiso
O12 O 0.1085(6) 0.5210(9) 0.3925(14) 0.0550 Uiso
C9 C 0.1542(14) 0.3342(10) 0.5034(11) 0.0550 Uiso
C14 C 0.1760(14) 0.3950(9) 0.2509(15) 0.0550 Uiso
O17 O 0.2436(4) 0.6137(4) 0.5432(5) 0.0550 Uiso
H1 H 0.056682 0.169001 0.19786 . .
H2 H 0.139034 0.205834 0.086688 . .
H3 H 0.212147 0.275402 0.442459 . .
H4 H 0.109683 0.217 0.453517 . .
H5 H 0.140148 0.316158 0.0740734 . .
H6 H 0.237712 0.3518 0.126859 . .
H7 H 0.193185 0.350509 0.592593 . .
H8 H 0.0956217 0.314867 0.539808 . .
H17 H 0.194299 0.460833 0.579979 . .
H18 H 0.276651 0.497666 0.468807 . .
H21 H 0.121186 0.391265 0.224208 . .
H22 H 0.223651 0.449666 0.21315 . .
Zr1_2 Zr -0.0000 -0.0000 1.0000 0.0100 Uiso
O24 O 0.0367(6) 0.0897(4) 0.8765(5) 0.0550 Uiso
Zr1_3 Zr 0.0000 1.0000 0.0000 0.0100 Uiso
Zr2_2 Zr 0.0000 1.0000 0.5000 0.0100 Uiso
P6 P 0.3553(6) 0.8018(4) 0.4189(9) 0.0420 Uiso
O8 O 0.3428(6) 0.7474(4) 0.2921(5) 0.0550 Uiso
O10 O 0.0712(4) 0.9905(6) 0.6254(5) 0.0550 Uiso
C7 C 0.0735(13) 0.8809(11) 0.1944(16) 0.0550 Uiso
C8 C 0.2598(13) 0.7858(11) 0.4723(16) 0.0550 Uiso
N5 N 0.1137(13) 0.8474(12) 0.2655(15) 0.0550 Uiso
N6 N 0.2196(13) 0.8193(12) 0.4012(15) 0.0550 Uiso
O16 O 0.4124(11) 0.8915(6) 0.3925(14) 0.0550 Uiso
C12 C 0.1534(17) 0.8209(14) 0.1633(11) 0.0550 Uiso
C13 C 0.1799(17) 0.8458(14) 0.5034(11) 0.0550 Uiso
C17 C 0.1144(17) 0.8427(14) 0.4158(15) 0.0550 Uiso
C18 C 0.2189(17) 0.8240(14) 0.2509(15) 0.0550 Uiso
O21 O 0.3700(6) 0.7564(4) 0.5432(5) 0.0550 Uiso
H13 H 0.17601 0.859852 0.0740734 . .
H14 H 0.114088 0.762288 0.126859 . .
H15 H 0.219245 0.904378 0.539808 . .
H16 H 0.157324 0.806815 0.592593 . .
H19 H 0.112319 0.943318 0.19786 . .
H20 H 0.0667998 0.860966 0.086688 . .
H26 H 0.266534 0.805701 0.579979 . .
H27 H 0.221014 0.723349 0.468807 . .
H37 H 0.226016 0.776349 0.21315 . .
H38 H 0.270079 0.878814 0.224208 . .
H39 H 0.0632548 0.787853 0.442459 . .
H40 H 0.107318 0.890317 0.453517 . .
Zr1_4 Zr -0.0000 1.0000 1.0000 0.0100 Uiso
O23 O 0.0530(4) 0.9633(6) 0.8765(5) 0.0550 Uiso
Zr1_5 Zr 1.0000 0.0000 0.0000 0.0100 Uiso
Zr2_3 Zr 1.0000 -0.0000 0.5000 0.0100 Uiso
P3 P 0.8869(4) 0.0220(6) 0.2478(9) 0.0420 Uiso
O5 O 0.9288(4) 0.0095(6) 0.3746(5) 0.0550 Uiso
O13 O 0.8543(9) 0.0791(11) 0.2742(14) 0.0550 Uiso
O18 O 0.9470(4) 0.0367(6) 0.1235(5) 0.0550 Uiso
Zr1_6 Zr 1.0000 -0.0000 1.0000 0.0100 Uiso
Zr1_7 Zr 1.0000 1.0000 0.0000 0.0100 Uiso
Zr2_4 Zr 1.0000 1.0000 0.5000 0.0100 Uiso
P4 P 0.4464(4) 0.6447(6) 0.4189(9) 0.0420 Uiso
P5 P 0.9780(6) 0.8649(4) 0.2478(9) 0.0420 Uiso
O6 O 0.4045(4) 0.6572(6) 0.2921(5) 0.0550 Uiso
O7 O 0.9905(6) 0.9193(4) 0.3746(5) 0.0550 Uiso
O9 O 0.9193(4) 0.9288(4) 0.6254(5) 0.0550 Uiso
C5 C 0.8074(6) 0.9265(13) 0.1944(16) 0.0550 Uiso
C6 C 0.5259(6) 0.7402(13) 0.4723(16) 0.0550 Uiso
N3 N 0.7337(6) 0.8863(13) 0.2655(15) 0.0550 Uiso
N4 N 0.5996(6) 0.7804(13) 0.4012(15) 0.0550 Uiso
O14 O 0.4790(9) 0.5876(11) 0.3925(14) 0.0550 Uiso
O15 O 0.9209(11) 0.7752(6) 0.2742(14) 0.0550 Uiso
C10 C 0.6675(10) 0.8466(17) 0.1633(11) 0.0550 Uiso
C11 C 0.6658(10) 0.8201(17) 0.5034(11) 0.0550 Uiso
C15 C 0.7283(9) 0.8856(17) 0.4158(15) 0.0550 Uiso
C16 C 0.6050(9) 0.7811(17) 0.2509(15) 0.0550 Uiso
O19 O 0.3863(4) 0.6300(6) 0.5432(5) 0.0550 Uiso
O20 O 0.9633(6) 0.9103(4) 0.1235(5) 0.0550 Uiso
H9 H 0.539167 0.733466 0.579979 . .
H10 H 0.502334 0.778986 0.468807 . .
H11 H 0.685133 0.780755 0.539808 . .
H12 H 0.649491 0.842676 0.592593 . .
H23 H 0.830999 0.887681 0.19786 . .
H24 H 0.794166 0.9332 0.086688 . .
H28 H 0.683842 0.82399 0.0740734 . .
H29 H 0.6482 0.885912 0.126859 . .
H30 H 0.724598 0.936745 0.442459 . .
H31 H 0.783 0.892682 0.453517 . .
H32 H 0.550334 0.773984 0.21315 . .
H33 H 0.608735 0.729921 0.224208 . .
Zr1_8 Zr 1.0000 1.0000 1.0000 0.0100 Uiso
O22 O 0.9103(4) 0.9470(4) 0.8765(5) 0.0550 Uiso
Zr3_2 Zr 0.6667 0.3333 0.3333 0.0100 Uiso
P2_2 P 0.5316(4) 0.2202(4) 0.0855(9) 0.0420 Uiso
C4_2 C 0.5476(11) 0.1407(6) 0.1389(16) 0.0550 Uiso
N2_2 N 0.5141(12) 0.0670(6) 0.0678(15) 0.0550 Uiso
O12_2 O 0.4419(6) 0.1876(9) 0.0591(14) 0.0550 Uiso
C9_2 C 0.4876(14) 0.0008(10) 0.1700(11) 0.0550 Uiso
O17_2 O 0.5770(4) 0.2803(4) 0.2098(5) 0.0550 Uiso
H7_2 H 0.526519 0.0171756 0.25926 . .
H17_2 H 0.527632 0.127499 0.246645 . .
H18_2 H 0.609985 0.164332 0.135474 . .
Zr6_2 Zr 0.6667 0.3333 0.8333 0.0100 Uiso
O4_2 O 0.5860(4) 0.2621(4) 0.9587(5) 0.0550 Uiso
C14_2 C 0.5094(14) 0.0616(9) 0.9175(15) 0.0550 Uiso
H6_2 H 0.571045 0.0184668 0.793525 . .
H21_2 H 0.45452 0.0579314 0.890875 . .
H22_2 H 0.556984 0.116333 0.879817 . .
O1_2 O 0.4140(4) 0.7379(4) 0.0413(5) 0.0550 Uiso
C3_2 C 0.4906(14) 0.9384(9) 0.0825(15) 0.0550 Uiso
P6_2 P 0.6887(6) 0.4684(4) 0.0855(9) 0.0420 Uiso
O5_2 O 0.2621(4) 0.6762(6) 0.0413(5) 0.0550 Uiso
O7_2 O 0.3238(6) 0.5860(4) 0.0413(5) 0.0550 Uiso
C8_2 C 0.5932(13) 0.4524(11) 0.1389(16) 0.0550 Uiso
N6_2 N 0.5530(13) 0.4859(12) 0.0678(15) 0.0550 Uiso
O16_2 O 0.7458(11) 0.5581(6) 0.0591(14) 0.0550 Uiso
C13_2 C 0.5133(17) 0.5124(14) 0.1700(11) 0.0550 Uiso
C15_2 C 0.0616(9) 0.5523(17) 0.0825(15) 0.0550 Uiso
C17_2 C 0.4477(17) 0.5094(14) 0.0825(15) 0.0550 Uiso
O21_2 O 0.7034(6) 0.4230(4) 0.2098(5) 0.0550 Uiso
H3_2 H 0.54548 0.942069 0.109125 . .
H4_2 H 0.443016 0.883667 0.120183 . .
H8_2 H 0.428955 0.981533 0.206475 . .
H11_2 H 0.0184668 0.447422 0.206475 . .
H15_2 H 0.552578 0.571045 0.206475 . .
H16_2 H 0.490657 0.473481 0.25926 . .
H26_2 H 0.599867 0.472368 0.246645 . .
H27_2 H 0.554348 0.390015 0.135474 . .
H30_2 H 0.0579314 0.603412 0.109125 . .
H31_2 H 0.116333 0.559349 0.120183 . .
H39_2 H 0.396588 0.45452 0.109125 . .
H40_2 H 0.440651 0.556984 0.120183 . .
P1_2 P 0.4684(4) 0.7798(4) 0.9145(9) 0.0420 Uiso
C1_2 C 0.4524(11) 0.8593(6) 0.8611(16) 0.0550 Uiso
N1_2 N 0.4859(12) 0.9330(6) 0.9322(15) 0.0550 Uiso
O2_2 O 0.5581(6) 0.8124(9) 0.9409(14) 0.0550 Uiso
C2_2 C 0.5124(14) 0.9992(10) 0.8300(11) 0.0550 Uiso
O3_2 O 0.4230(4) 0.7197(4) 0.7902(5) 0.0550 Uiso
P3_2 P 0.2202(4) 0.6887(6) 0.9145(9) 0.0420 Uiso
P5_2 P 0.3113(6) 0.5316(4) 0.9145(9) 0.0420 Uiso
O8_2 O 0.6762(6) 0.4140(4) 0.9587(5) 0.0550 Uiso
C5_2 C 0.1407(6) 0.5932(13) 0.8611(16) 0.0550 Uiso
C7_2 C 0.4068(13) 0.5476(11) 0.8611(16) 0.0550 Uiso
N3_2 N 0.0670(6) 0.5530(13) 0.9322(15) 0.0550 Uiso
N5_2 N 0.4470(13) 0.5141(12) 0.9322(15) 0.0550 Uiso
O13_2 O 0.1876(9) 0.7458(11) 0.9409(14) 0.0550 Uiso
O15_2 O 0.2542(11) 0.4419(6) 0.9409(14) 0.0550 Uiso
C10_2 C 0.0008(10) 0.5133(17) 0.8300(11) 0.0550 Uiso
C12_2 C 0.4867(17) 0.4876(14) 0.8300(11) 0.0550 Uiso
C18_2 C 0.5523(17) 0.4906(14) 0.9175(15) 0.0550 Uiso
O18_2 O 0.2803(4) 0.7034(6) 0.7902(5) 0.0550 Uiso
O20_2 O 0.2966(6) 0.5770(4) 0.7902(5) 0.0550 Uiso
H1_2 H 0.390015 0.835668 0.864526 . .
H2_2 H 0.472368 0.872501 0.753355 . .
H5_2 H 0.473481 0.982824 0.74074 . .
H13_2 H 0.509343 0.526519 0.74074 . .
H14_2 H 0.447422 0.428955 0.793525 . .
H19_2 H 0.445652 0.609985 0.864526 . .
H20_2 H 0.400133 0.527632 0.753355 . .
H23_2 H 0.164332 0.554348 0.864526 . .
H24_2 H 0.127499 0.599867 0.753355 . .
H28_2 H 0.0171756 0.490657 0.74074 . .
H37_2 H 0.559349 0.443016 0.879817 . .
H38_2 H 0.603412 0.54548 0.890875 . .
P4_2 P 0.7798(4) 0.3113(6) 0.0855(9) 0.0420 Uiso
C6_2 C 0.8593(6) 0.4068(13) 0.1389(16) 0.0550 Uiso
N4_2 N 0.9330(6) 0.4470(13) 0.0678(15) 0.0550 Uiso
O14_2 O 0.8124(9) 0.2542(11) 0.0591(14) 0.0550 Uiso
C11_2 C 0.9992(10) 0.4867(17) 0.1700(11) 0.0550 Uiso
O19_2 O 0.7197(4) 0.2966(6) 0.2098(5) 0.0550 Uiso
H9_2 H 0.872501 0.400133 0.246645 . .
H10_2 H 0.835668 0.445652 0.135474 . .
H12_2 H 0.982824 0.509343 0.25926 . .
O6_2 O 0.7379(4) 0.3238(6) 0.9587(5) 0.0550 Uiso
C16_2 C 0.9384(9) 0.4477(17) 0.9175(15) 0.0550 Uiso
H29_2 H 0.981533 0.552578 0.793525 . .
H32_2 H 0.883667 0.440651 0.879817 . .
H33_2 H 0.942069 0.396588 0.890875 . .
P6_3 P 0.0220(6) 0.1351(4) 0.7522(9) 0.0420 Uiso
O16_3 O 0.0791(11) 0.2248(6) 0.7258(14) 0.0550 Uiso
P1_3 P 0.8018(4) 0.4464(4) 0.5811(9) 0.0420 Uiso
O1_3 O 0.7474(4) 0.4045(4) 0.7079(5) 0.0550 Uiso
C1_3 C 0.7858(11) 0.5259(6) 0.5277(16) 0.0550 Uiso
N1_3 N 0.8193(12) 0.5996(6) 0.5988(15) 0.0550 Uiso
O2_3 O 0.8915(6) 0.4790(9) 0.6075(14) 0.0550 Uiso
C2_3 C 0.8458(14) 0.6658(10) 0.4966(11) 0.0550 Uiso
C3_3 C 0.8240(14) 0.6050(9) 0.7491(15) 0.0550 Uiso
O3_3 O 0.7564(4) 0.3863(4) 0.4568(5) 0.0550 Uiso
P2_3 P 0.8649(4) 0.8869(4) 0.7522(9) 0.0420 Uiso
P3_3 P 0.5536(4) 0.3553(6) 0.5811(9) 0.0420 Uiso
P5_3 P 0.6447(6) 0.1982(4) 0.5811(9) 0.0420 Uiso
O5_3 O 0.5955(4) 0.3428(6) 0.7079(5) 0.0550 Uiso
O7_3 O 0.6572(6) 0.2526(4) 0.7079(5) 0.0550 Uiso
C4_3 C 0.8809(11) 0.8074(6) 0.8056(16) 0.0550 Uiso
C5_3 C 0.4741(6) 0.2598(13) 0.5277(16) 0.0550 Uiso
C6_3 C 0.1926(6) 0.0735(13) 0.8056(16) 0.0550 Uiso
C7_3 C 0.7402(13) 0.2142(11) 0.5277(16) 0.0550 Uiso
C8_3 C 0.9265(13) 0.1191(11) 0.8056(16) 0.0550 Uiso
N2_3 N 0.8474(12) 0.7337(6) 0.7345(15) 0.0550 Uiso
N3_3 N 0.4004(6) 0.2196(13) 0.5988(15) 0.0550 Uiso
N4_3 N 0.2663(6) 0.1137(13) 0.7345(15) 0.0550 Uiso
N5_3 N 0.7804(13) 0.1807(12) 0.5988(15) 0.0550 Uiso
N6_3 N 0.8863(13) 0.1526(12) 0.7345(15) 0.0550 Uiso
O12_3 O 0.7752(6) 0.8543(9) 0.7258(14) 0.0550 Uiso
O13_3 O 0.5210(9) 0.4124(11) 0.6075(14) 0.0550 Uiso
O15_3 O 0.5876(11) 0.1085(6) 0.6075(14) 0.0550 Uiso
C9_3 C 0.8209(14) 0.6675(10) 0.8367(11) 0.0550 Uiso
C10_3 C 0.3342(10) 0.1799(17) 0.4966(11) 0.0550 Uiso
C11_3 C 0.3325(10) 0.1534(17) 0.8367(11) 0.0550 Uiso
C12_3 C 0.8201(17) 0.1542(14) 0.4966(11) 0.0550 Uiso
C13_3 C 0.8466(17) 0.1791(14) 0.8367(11) 0.0550 Uiso
C14_3 C 0.8427(14) 0.7283(9) 0.5842(15) 0.0550 Uiso
C15_3 C 0.3950(9) 0.2189(17) 0.7491(15) 0.0550 Uiso
C16_3 C 0.2717(9) 0.1144(17) 0.5842(15) 0.0550 Uiso
C17_3 C 0.7811(17) 0.1760(14) 0.7491(15) 0.0550 Uiso
C18_3 C 0.8856(17) 0.1573(14) 0.5842(15) 0.0550 Uiso
O18_3 O 0.6137(4) 0.3700(6) 0.4568(5) 0.0550 Uiso
O20_3 O 0.6300(6) 0.2436(4) 0.4568(5) 0.0550 Uiso
H1_3 H 0.723349 0.502334 0.531193 . .
H2_3 H 0.805701 0.539167 0.420021 . .
H3_3 H 0.878814 0.608735 0.775792 . .
H4_3 H 0.776349 0.550334 0.78685 . .
H5_3 H 0.806815 0.649491 0.407407 . .
H6_3 H 0.904378 0.685133 0.460192 . .
H7_3 H 0.859852 0.683842 0.925927 . .
H8_3 H 0.762288 0.6482 0.873141 . .
H9_3 H 0.205834 0.0667998 0.913312 . .
H10_3 H 0.169001 0.112319 0.80214 . .
H11_3 H 0.3518 0.114088 0.873141 . .
H12_3 H 0.316158 0.17601 0.925927 . .
H13_3 H 0.842676 0.193185 0.407407 . .
H14_3 H 0.780755 0.0956217 0.460192 . .
H15_3 H 0.885912 0.237712 0.873141 . .
H16_3 H 0.82399 0.140148 0.925927 . .
H17_3 H 0.860966 0.794166 0.913312 . .
H18_3 H 0.943318 0.830999 0.80214 . .
H19_3 H 0.778986 0.276651 0.531193 . .
H20_3 H 0.733466 0.194299 0.420021 . .
H21_3 H 0.787853 0.724598 0.557541 . .
H22_3 H 0.890317 0.783 0.546483 . .
H23_3 H 0.497666 0.221014 0.531193 . .
H24_3 H 0.460833 0.266534 0.420021 . .
H26_3 H 0.9332 0.139034 0.913312 . .
H27_3 H 0.887681 0.056682 0.80214 . .
H28_3 H 0.350509 0.157324 0.407407 . .
H29_3 H 0.314867 0.219245 0.460192 . .
H30_3 H 0.391265 0.270079 0.775792 . .
H31_3 H 0.449666 0.226016 0.78685 . .
H32_3 H 0.217 0.107318 0.546483 . .
H33_3 H 0.275402 0.0632548 0.557541 . .
H37_3 H 0.892682 0.109683 0.546483 . .
H38_3 H 0.936745 0.212147 0.557541 . .
H39_3 H 0.729921 0.121186 0.775792 . .
H40_3 H 0.773984 0.223651 0.78685 . .
P4_3 P 0.1131(4) 0.9780(6) 0.7522(9) 0.0420 Uiso
O14_3 O 0.1457(9) 0.9209(11) 0.7258(14) 0.0550 Uiso
loop_
_geom_bond_atom_site_label_1
_geom_bond_atom_site_label_2
_geom_bond_site_symmetry_1
_geom_bond_site_symmetry_2
Zr1 O3 1_555 1_555
Zr2 O1 1_555 1_555
P1 O1 1_555 1_555
C1 P1 1_555 1_555
N1 C1 1_555 1_555
O2 P1 1_555 1_555
C2 N1 1_555 1_555
C3 N1 1_555 1_555
O3 P1 1_555 1_555
Zr3 O17 1_555 1_555
Zr6 O4 1_555 1_555
P2 O4 1_555 1_555
O11 Zr2 1_555 1_555
C4 P2 1_555 1_555
N2 C4 1_555 1_555
O12 P2 1_555 1_555
C9 C3 1_555 1_555
C14 C2 1_555 1_555
O17 P2 1_555 1_555
N2 C9 1_555 1_555
N2 C14 1_555 1_555
C1 H1 1_555 1_555
C1 H2 1_555 1_555
C3 H3 1_555 1_555
C3 H4 1_555 1_555
C2 H5 1_555 1_555
C2 H6 1_555 1_555
C9 H7 1_555 1_555
C9 H8 1_555 1_555
C4 H17 1_555 1_555
C4 H18 1_555 1_555
C14 H21 1_555 1_555
C14 H22 1_555 1_555
O24 Zr1_2 1_555 1_555
Zr3 O21 1_555 1_555
Zr6 O8 1_555 1_555
P6 O8 1_555 1_555
O10 Zr2_2 1_555 1_555
C8 P6 1_555 1_555
N5 C7 1_555 1_555
N6 C8 1_555 1_555
O16 P6 1_555 1_555
C12 N5 1_555 1_555
C13 N6 1_555 1_555
C17 N5 1_555 1_555
C18 N6 1_555 1_555
O21 P6 1_555 1_555
C12 C18 1_555 1_555
C13 C17 1_555 1_555
C12 H13 1_555 1_555
C12 H14 1_555 1_555
C13 H15 1_555 1_555
C13 H16 1_555 1_555
C7 H19 1_555 1_555
C7 H20 1_555 1_555
C8 H26 1_555 1_555
C8 H27 1_555 1_555
C18 H37 1_555 1_555
C18 H38 1_555 1_555
C17 H39 1_555 1_555
C17 H40 1_555 1_555
O23 Zr1_4 1_555 1_555
P3 O5 1_555 1_555
O5 Zr2_3 1_555 1_555
O13 P3 1_555 1_555
O18 Zr1_5 1_555 1_555
P3 O18 1_555 1_555
Zr3 O19 1_555 1_555
Zr6 O6 1_555 1_555
P4 O6 1_555 1_555
P5 O7 1_555 1_555
O7 Zr2_4 1_555 1_555
O9 Zr2_4 1_555 1_555
C6 P4 1_555 1_555
N3 C5 1_555 1_555
N4 C6 1_555 1_555
O14 P4 1_555 1_555
O15 P5 1_555 1_555
C10 N3 1_555 1_555
C11 N4 1_555 1_555
C15 N3 1_555 1_555
C16 N4 1_555 1_555
O19 P4 1_555 1_555
O20 Zr1_7 1_555 1_555
P5 O20 1_555 1_555
C10 C16 1_555 1_555
C11 C15 1_555 1_555
C6 H9 1_555 1_555
C6 H10 1_555 1_555
C11 H11 1_555 1_555
C11 H12 1_555 1_555
C5 H23 1_555 1_555
C5 H24 1_555 1_555
C10 H28 1_555 1_555
C10 H29 1_555 1_555
C15 H30 1_555 1_555
C15 H31 1_555 1_555
C16 H32 1_555 1_555
C16 H33 1_555 1_555
O22 Zr1_8 1_555 1_555
Zr3_2 O17_2 1_555 1_555
C4_2 P2_2 1_555 1_555
N2_2 C4_2 1_555 1_555
O12_2 P2_2 1_555 1_555
O17_2 P2_2 1_555 1_555
N2_2 C9_2 1_555 1_555
C9_2 H7_2 1_555 1_555
C4_2 H17_2 1_555 1_555
C4_2 H18_2 1_555 1_555
Zr6_2 O4_2 1_555 1_555
C14_2 H21_2 1_555 1_555
C14_2 H22_2 1_555 1_555
Zr6 O1_2 1_555 1_555
Zr3_2 O21_2 1_555 1_555
O5_2 Zr6 1_555 1_555
O7_2 Zr6 1_555 1_555
C8_2 P6_2 1_555 1_555
N6_2 C8_2 1_555 1_555
O16_2 P6_2 1_555 1_555
C13_2 N6_2 1_555 1_555
O21_2 P6_2 1_555 1_555
C13_2 C17_2 1_555 1_555
C3_2 H3_2 1_555 1_555
C3_2 H4_2 1_555 1_555
C13_2 H15_2 1_555 1_555
C13_2 H16_2 1_555 1_555
C8_2 H26_2 1_555 1_555
C8_2 H27_2 1_555 1_555
C15_2 H30_2 1_555 1_555
C15_2 H31_2 1_555 1_555
C17_2 H39_2 1_555 1_555
C17_2 H40_2 1_555 1_555
Zr3 O3_2 1_555 1_555
C1_2 P1_2 1_555 1_555
N1_2 C1_2 1_555 1_555
O2_2 P1_2 1_555 1_555
C2_2 N1_2 1_555 1_555
O3_2 P1_2 1_555 1_555
Zr6_2 O8_2 1_555 1_555
C5_2 P3_2 1_555 1_555
C7_2 P5_2 1_555 1_555
N3_2 C5_2 1_555 1_555
N5_2 C7_2 1_555 1_555
O13_2 P3_2 1_555 1_555
O15_2 P5_2 1_555 1_555
C10_2 N3_2 1_555 1_555
C12_2 N5_2 1_555 1_555
O18_2 Zr3 1_555 1_555
O20_2 Zr3 1_555 1_555
P3_2 O18_2 1_555 1_555
P5_2 O20_2 1_555 1_555
C12_2 C18_2 1_555 1_555
C1_2 H1_2 1_555 1_555
C1_2 H2_2 1_555 1_555
C2_2 H5_2 1_555 1_555
C12_2 H13_2 1_555 1_555
C12_2 H14_2 1_555 1_555
C7_2 H19_2 1_555 1_555
C7_2 H20_2 1_555 1_555
C5_2 H23_2 1_555 1_555
C5_2 H24_2 1_555 1_555
C10_2 H28_2 1_555 1_555
C18_2 H37_2 1_555 1_555
C18_2 H38_2 1_555 1_555
Zr3_2 O19_2 1_555 1_555
C6_2 P4_2 1_555 1_555
N4_2 C6_2 1_555 1_555
O14_2 P4_2 1_555 1_555
C11_2 N4_2 1_555 1_555
O19_2 P4_2 1_555 1_555
C6_2 H9_2 1_555 1_555
C6_2 H10_2 1_555 1_555
C11_2 H12_2 1_555 1_555
Zr6_2 O6_2 1_555 1_555
C16_2 H32_2 1_555 1_555
C16_2 H33_2 1_555 1_555
P6_3 O11 1_555 1_555
O16_3 P6_3 1_555 1_555
O24 P6_3 1_555 1_555
Zr3_2 O3_3 1_555 1_555
Zr6_2 O1_3 1_555 1_555
P1_3 O1_3 1_555 1_555
C1_3 P1_3 1_555 1_555
N1_3 C1_3 1_555 1_555
O2_3 P1_3 1_555 1_555
C2_3 N1_3 1_555 1_555
C3_3 N1_3 1_555 1_555
O3_3 P1_3 1_555 1_555
P2_3 O9 1_555 1_555
P3_3 O5_3 1_555 1_555
P5_3 O7_3 1_555 1_555
O5_3 Zr6_2 1_555 1_555
O7_3 Zr6_2 1_555 1_555
C4_3 P2_3 1_555 1_555
C5_3 P3_3 1_555 1_555
C7_3 P5_3 1_555 1_555
N2_3 C4_3 1_555 1_555
N3_3 C5_3 1_555 1_555
N4_3 C6_3 1_555 1_555
N5_3 C7_3 1_555 1_555
N6_3 C8_3 1_555 1_555
O12_3 P2_3 1_555 1_555
O13_3 P3_3 1_555 1_555
O15_3 P5_3 1_555 1_555
C9_3 C3_3 1_555 1_555
C10_3 N3_3 1_555 1_555
C11_3 N4_3 1_555 1_555
C12_3 N5_3 1_555 1_555
C13_3 N6_3 1_555 1_555
C14_3 C2_3 1_555 1_555
C15_3 N3_3 1_555 1_555
C16_3 N4_3 1_555 1_555
C17_3 N5_3 1_555 1_555
C18_3 N6_3 1_555 1_555
O22 P2_3 1_555 1_555
O18_3 Zr3_2 1_555 1_555
O20_3 Zr3_2 1_555 1_555
P3_3 O18_3 1_555 1_555
P5_3 O20_3 1_555 1_555
N2_3 C9_3 1_555 1_555
N2_3 C14_3 1_555 1_555
C10_3 C16_3 1_555 1_555
C11_3 C15_3 1_555 1_555
C12_3 C18_3 1_555 1_555
C13_3 C17_3 1_555 1_555
C1_3 H1_3 1_555 1_555
C1_3 H2_3 1_555 1_555
C3_3 H3_3 1_555 1_555
C3_3 H4_3 1_555 1_555
C2_3 H5_3 1_555 1_555
C2_3 H6_3 1_555 1_555
C9_3 H7_3 1_555 1_555
C9_3 H8_3 1_555 1_555
C6_3 H9_3 1_555 1_555
C6_3 H10_3 1_555 1_555
C11_3 H11_3 1_555 1_555
C11_3 H12_3 1_555 1_555
C12_3 H13_3 1_555 1_555
C12_3 H14_3 1_555 1_555
C13_3 H15_3 1_555 1_555
C13_3 H16_3 1_555 1_555
C4_3 H17_3 1_555 1_555
C4_3 H18_3 1_555 1_555
C7_3 H19_3 1_555 1_555
C7_3 H20_3 1_555 1_555
C14_3 H21_3 1_555 1_555
C14_3 H22_3 1_555 1_555
C5_3 H23_3 1_555 1_555
C5_3 H24_3 1_555 1_555
C8_3 H26_3 1_555 1_555
C8_3 H27_3 1_555 1_555
C10_3 H28_3 1_555 1_555
C10_3 H29_3 1_555 1_555
C15_3 H30_3 1_555 1_555
C15_3 H31_3 1_555 1_555
C16_3 H32_3 1_555 1_555
C16_3 H33_3 1_555 1_555
C18_3 H37_3 1_555 1_555
C18_3 H38_3 1_555 1_555
C17_3 H39_3 1_555 1_555
C17_3 H40_3 1_555 1_555
P4_3 O10 1_555 1_555
O14_3 P4_3 1_555 1_555
O23 P4_3 1_555 1_555

#END
