
###############################################################################
#
# This file contains modified crystal structure data generated from the
# MOF subset of the Cambridge Structural Database (CSD) v542 
# hosted by the Cambridge Crystallographic Data Centre (CCDC).
#
# This work is licensed under the Creative Commons
# Attribution-NonCommercial-ShareAlike 4.0 International License.
# To view a copy of this license, visit
# http://creativecommons.org/licenses/by-nc-sa/4.0/
# or send a letter to
# Creative Commons, PO Box 1866, Mountain View, CA 94042, USA.
#
# CIF created using the CSD Python API on 22 February 2021
# The structure has been converted into the P1 space group
# The structure has a 3D framework
# The original CSD entry BILRIA is in the triclinic crystal system
# The framework has been calculated to contain at least 10.0% void space
# The void calculation uses a probe of radius 1.32A, grid spacing 0.4
#
###############################################################################

data_BILRIA
_chemical_formula_moiety         '(C48 H64 N12 O40 Tb4)n'
_symmetry_cell_setting           triclinic
_symmetry_space_group_name_H-M   'P 1'
_symmetry_Int_Tables_number      1
_space_group_name_Hall           'P 1'
loop_
_symmetry_equiv_pos_site_id
_symmetry_equiv_pos_as_xyz
1 x,y,z
_cell_length_a                   12.6849(5)
_cell_length_b                   13.2174(6)
_cell_length_c                   17.4718(4)
_cell_angle_alpha                72.483(3)
_cell_angle_beta                 72.523(3)
_cell_angle_gamma                61.535(5)
_cell_volume                     2412.42
loop_
_atom_site_label
_atom_site_type_symbol
_atom_site_fract_x
_atom_site_fract_y
_atom_site_fract_z
Tb6 Tb 0.030197(16) 0.589070(16) 0.378924(10)
Tb5 Tb 0.002579(16) 0.116597(16) 0.856394(10)
C19 C 0.2757(4) 0.0655(4) 0.4726(3)
H17 H 0.2702 0.1252 0.4234
H18 H 0.3249 0.0696 0.5037
C20 C 0.1496(4) 0.0883(4) 0.5227(3)
H19 H 0.0985 0.0910 0.4898
H20 H 0.1545 0.0246 0.5692
C21 C 0.0926(4) 0.2019(4) 0.5525(2)
O17 O 0.1419(2) 0.2139(2) 0.60004(15)
O20 O 0.2246(3) 0.0189(3) 0.35055(19)
C4 C 0.2358(5) 0.4922(4) 0.0449(3)
H1 H 0.2773 0.4758 0.0887
H2 H 0.1567 0.4912 0.0697
C6 C 0.1356(4) 0.7034(4) 0.0478(2)
C11 C 0.6590(3) 0.1017(4) 0.0182(2)
H11 H 0.6342 0.0409 0.0225
H12 H 0.6127 0.1398 0.0648
C12 C 0.7932(3) 0.0452(3) 0.0221(2)
C13 C 0.3008(4) 0.9374(4) 0.3864(3)
C14 C 0.4153(4) 0.8558(4) 0.4973(3)
C15 C 0.4406(4) 0.7301(4) 0.4090(2)
C16 C 0.3202(4) 0.8121(4) 0.3016(2)
H13 H 0.3889 0.7530 0.2731
H14 H 0.2937 0.8850 0.2625
C17 C 0.2170(4) 0.7746(4) 0.3364(2)
H15 H 0.2508 0.6916 0.3597
H16 H 0.1630 0.8161 0.3804
C18 C 0.1436(3) 0.7963(3) 0.2755(2)
C22 C 0.5556(4) 0.6500(4) 0.5198(2)
H21 H 0.5518 0.5778 0.5215
H22 H 0.5383 0.6606 0.5756
C23 C 0.6815(4) 0.6419(5) 0.4790(3)
H23 H 0.7011 0.6216 0.4260
H24 H 0.6798 0.7187 0.4698
C24 C 0.7804(4) 0.5566(4) 0.5243(2)
O1 O 0.1646(3) 0.6929(2) 0.11437(15)
O2 O 0.1610(3) 0.5249(2) 0.25288(15)
O3 O 0.0429(3) 0.7889(3) 0.02474(15)
O4 O 0.0697(3) 0.3923(3) 0.37941(16)
O13 O 0.4843(3) 0.3698(3) 0.0227(2)
O14 O 0.0849(2) 0.7369(2) 0.28769(14)
O15 O 0.1376(3) 0.8773(3) 0.21429(15)
O18 O 0.8890(2) 0.5423(2) 0.49090(14)
O19 O 0.7594(2) 0.5015(2) 0.59487(15)
O21 O 0.4395(3) 0.8686(3) 0.5545(2)
O22 O 0.4891(3) 0.6357(3) 0.39037(19)
N4 N 0.3585(3) 0.8282(3) 0.36702(19)
N5 N 0.3348(3) 0.9484(3) 0.4501(2)
N6 N 0.4640(3) 0.7486(3) 0.47519(19)
Tb9 Tb 0.969803(16) 0.410930(16) 0.621076(10)
O25 O 0.1322(2) 0.9408(2) 0.03937(15)
O27 O 0.0043(3) 0.7160(2) 0.46915(15)
O30 O 0.1110(2) 0.4577(2) 0.50910(14)
O31 O 0.2406(2) 0.4985(2) 0.40513(15)
C1 C 0.2441(4) 0.3726(4) 0.9587(3)
C2 C 0.4371(4) 0.2162(4) 0.9121(2)
C3 C 0.4331(4) 0.3434(4) 0.9905(2)
C5 C 0.2173(5) 0.6128(4) 0.9950(3)
H3 H 0.2955 0.6168 0.9739
H4 H 0.1805 0.6281 0.9491
C7 C 0.2468(4) 0.2483(4) 0.8793(2)
H5 H 0.1680 0.2580 0.9139
H6 H 0.2927 0.1665 0.8745
C8 C 0.2280(4) 0.3234(4) 0.7952(2)
H7 H 0.2001 0.4046 0.7983
H8 H 0.3058 0.3004 0.7578
C9 C 0.1379(4) 0.3143(4) 0.7615(2)
C10 C 0.6272(3) 0.1904(4) 0.9414(2)
H9 H 0.6608 0.2461 0.9330
H10 H 0.6639 0.1509 0.8951
O5 O 0.1119(3) 0.3794(3) 0.69458(15)
O7 O 0.0928(3) 0.2445(3) 0.80163(17)
O9 O 0.8678(2) 0.0592(2) 0.96063(15)
O11 O 0.1353(3) 0.4264(3) 0.9619(2)
O12 O 0.4932(3) 0.1328(3) 0.87828(19)
N1 N 0.3077(3) 0.3993(3) 0.9956(2)
N2 N 0.3125(3) 0.2803(3) 0.91751(18)
N3 N 0.4939(3) 0.2539(3) 0.94570(18)
O10 O 0.8196(2) 0.9862(3) 0.08994(15)
Tb3 Tb 0.997421(16) 0.883403(16) 0.143606(10)
O6 O 0.9420(3) 0.0916(2) 0.13402(16)
H32 H 0.7991 0.0239 0.2695
O16 O 0.9957(3) 0.2840(2) 0.53085(15)
O8 O 0.8507(3) 0.9555(3) 0.26153(16)
O23 O 0.8881(3) 0.6206(3) 0.30542(15)
O24 O 0.9072(3) 0.7555(3) 0.19837(17)
O28 O 0.8581(2) 0.7861(2) 0.39996(15)
O8_2 O 0.1493(3) 0.0445(3) 0.73847(16)
O26 O 0.1804(2) 0.0138(3) 0.91006(15)
O6_2 O 0.0580(3) 0.9084(2) 0.86598(16)
H32_2 H 0.2009 0.9761 0.7305
C1_2 C 0.7559(4) 0.6274(4) 0.0413(3)
C2_2 C 0.5629(4) 0.7838(4) 0.0879(2)
C3_2 C 0.5669(4) 0.6566(4) 0.0095(2)
C5_2 C 0.7827(5) 0.3872(4) 0.0050(3)
H3_2 H 0.7045 0.3832 0.0261
H4_2 H 0.8195 0.3719 0.0509
C7_2 C 0.7532(4) 0.7517(4) 0.1207(2)
H5_2 H 0.8320 0.7420 0.0861
H6_2 H 0.7073 0.8335 0.1255
C8_2 C 0.7720(4) 0.6766(4) 0.2048(2)
H7_2 H 0.7999 0.5954 0.2017
H8_2 H 0.6942 0.6996 0.2422
C9_2 C 0.8621(4) 0.6857(4) 0.2385(2)
C10_2 C 0.3728(3) 0.8096(4) 0.0586(2)
H9_2 H 0.3392 0.7539 0.0670
H10_2 H 0.3361 0.8491 0.1049
O11_2 O 0.8647(3) 0.5736(3) 0.0381(2)
O12_2 O 0.5068(3) 0.8672(3) 0.12172(19)
N1_2 N 0.6923(3) 0.6007(3) 0.0044(2)
N2_2 N 0.6875(3) 0.7197(3) 0.08249(18)
N3_2 N 0.5061(3) 0.7461(3) 0.05430(18)
C4_2 C 0.7642(5) 0.5078(4) 0.9551(3)
H1_2 H 0.7227 0.5242 0.9113
H2_2 H 0.8433 0.5088 0.9303
C6_2 C 0.8644(4) 0.2966(4) 0.9522(2)
C11_2 C 0.3410(3) 0.8983(4) 0.9818(2)
H11_2 H 0.3658 0.9591 0.9775
H12_2 H 0.3873 0.8602 0.9352
C12_2 C 0.2068(3) 0.9548(3) 0.9779(2)
C13_2 C 0.6992(4) 0.0626(4) 0.6136(3)
C14_2 C 0.5847(4) 0.1442(4) 0.5027(3)
C15_2 C 0.5594(4) 0.2699(4) 0.5910(2)
C16_2 C 0.6798(4) 0.1879(4) 0.6984(2)
H13_2 H 0.6111 0.2470 0.7269
H14_2 H 0.7063 0.1150 0.7375
C17_2 C 0.7830(4) 0.2254(4) 0.6636(2)
H15_2 H 0.7492 0.3084 0.6403
H16_2 H 0.8370 0.1839 0.6196
C18_2 C 0.8564(3) 0.2037(3) 0.7245(2)
C22_2 C 0.4444(4) 0.3500(4) 0.4802(2)
H21_2 H 0.4482 0.4222 0.4785
H22_2 H 0.4617 0.3394 0.4244
C23_2 C 0.3185(4) 0.3581(5) 0.5210(3)
H23_2 H 0.2989 0.3784 0.5740
H24_2 H 0.3202 0.2813 0.5302
C24_2 C 0.2196(4) 0.4434(4) 0.4757(2)
O1_2 O 0.8354(3) 0.3071(2) 0.88563(15)
O2_2 O 0.8390(3) 0.4751(2) 0.74712(15)
O3_2 O 0.9571(3) 0.2111(3) 0.97526(15)
O4_2 O 0.9303(3) 0.6077(3) 0.62059(16)
O13_2 O 0.5157(3) 0.6302(3) 0.9773(2)
O14_2 O 0.9151(2) 0.2631(2) 0.71231(14)
O15_2 O 0.8624(3) 0.1227(3) 0.78571(15)
O21_2 O 0.5605(3) 0.1314(3) 0.4455(2)
O22_2 O 0.5109(3) 0.3643(3) 0.60963(19)
N4_2 N 0.6415(3) 0.1718(3) 0.63298(19)
N5_2 N 0.6652(3) 0.0516(3) 0.5499(2)
N6_2 N 0.5360(3) 0.2514(3) 0.52481(19)
C19_2 C 0.7243(4) 0.9345(4) 0.5274(3)
H17_2 H 0.7298 0.8748 0.5766
H18_2 H 0.6751 0.9304 0.4963
C20_2 C 0.8504(4) 0.9117(4) 0.4773(3)
H19_2 H 0.9015 0.9090 0.5102
H20_2 H 0.8455 0.9754 0.4308
C21_2 C 0.9074(4) 0.7981(4) 0.4475(2)
O20_2 O 0.7754(3) 0.9811(3) 0.64945(19)
loop_
_geom_bond_atom_site_label_1
_geom_bond_atom_site_label_2
_geom_bond_site_symmetry_1
_geom_bond_site_symmetry_2
C19 H17 1_555 1_555
H18 C19 1_555 1_555
C20 C19 1_555 1_555
H19 C20 1_555 1_555
H20 C20 1_555 1_555
C21 C20 1_555 1_555
O17 C21 1_555 1_555
Tb6 O2 1_555 1_555
C4 H1 1_555 1_555
H2 C4 1_555 1_555
H11 C11 1_555 1_555
H12 C11 1_555 1_555
C12 C11 1_555 1_555
C14 O21 1_555 1_555
C15 O22 1_555 1_555
C16 H13 1_555 1_555
H14 C16 1_555 1_555
C17 C16 1_555 1_555
H15 C17 1_555 1_555
H16 C17 1_555 1_555
C18 C17 1_555 1_555
C22 H21 1_555 1_555
H22 C22 1_555 1_555
C23 C22 1_555 1_555
H23 C23 1_555 1_555
H24 C23 1_555 1_555
C24 C23 1_555 1_555
O1 C6 1_555 1_555
O4 Tb6 1_555 1_555
O18 C24 1_555 1_555
O19 C24 1_555 1_555
N4 C13 1_555 1_555
N5 C13 1_555 1_555
N6 C14 1_555 1_555
Tb9 O18 1_555 1_555
O27 Tb6 1_555 1_555
O30 Tb6 1_555 1_555
O31 Tb6 1_555 1_555
Tb6 O14 1_555 1_555
C6 O3 1_555 1_555
C14 N5 1_555 1_555
C15 N4 1_555 1_555
C15 N6 1_555 1_555
C16 N4 1_555 1_555
C18 O14 1_555 1_555
C18 O15 1_555 1_555
C22 N6 1_555 1_555
O19 Tb9 1_555 1_555
C1 O11 1_555 1_555
C2 O12 1_555 1_555
H3 C5 1_555 1_555
H4 C5 1_555 1_555
C7 H5 1_555 1_555
H6 C7 1_555 1_555
C8 C7 1_555 1_555
H7 C8 1_555 1_555
H8 C8 1_555 1_555
C9 C8 1_555 1_555
C10 H9 1_555 1_555
H10 C10 1_555 1_555
O5 C9 1_555 1_555
O7 C9 1_555 1_555
N1 C1 1_555 1_555
N2 C1 1_555 1_555
N3 C2 1_555 1_555
Tb5 O7 1_555 1_555
C2 N2 1_555 1_555
C3 N1 1_555 1_555
C3 N3 1_555 1_555
C7 N2 1_555 1_555
C10 N3 1_555 1_555
Tb3 O10 1_555 1_555
Tb9 O16 1_555 1_555
O8 Tb3 1_555 1_555
O24 Tb3 1_555 1_555
O8_2 Tb5 1_555 1_555
O26 Tb5 1_555 1_555
C1_2 O11_2 1_555 1_555
C2_2 O12_2 1_555 1_555
H3_2 C5_2 1_555 1_555
H4_2 C5_2 1_555 1_555
C7_2 H5_2 1_555 1_555
H6_2 C7_2 1_555 1_555
C8_2 C7_2 1_555 1_555
H7_2 C8_2 1_555 1_555
H8_2 C8_2 1_555 1_555
C9_2 C8_2 1_555 1_555
C10_2 H9_2 1_555 1_555
H10_2 C10_2 1_555 1_555
O23 C9_2 1_555 1_555
O24 C9_2 1_555 1_555
N1_2 C1_2 1_555 1_555
N2_2 C1_2 1_555 1_555
N3_2 C2_2 1_555 1_555
C2_2 N2_2 1_555 1_555
C3_2 N1_2 1_555 1_555
C3_2 N3_2 1_555 1_555
C7_2 N2_2 1_555 1_555
C10_2 N3_2 1_555 1_555
Tb9 O2_2 1_555 1_555
C4_2 H1_2 1_555 1_555
H2_2 C4_2 1_555 1_555
H11_2 C11_2 1_555 1_555
H12_2 C11_2 1_555 1_555
C12_2 C11_2 1_555 1_555
C14_2 O21_2 1_555 1_555
C15_2 O22_2 1_555 1_555
C16_2 H13_2 1_555 1_555
H14_2 C16_2 1_555 1_555
C17_2 C16_2 1_555 1_555
H15_2 C17_2 1_555 1_555
H16_2 C17_2 1_555 1_555
C18_2 C17_2 1_555 1_555
C22_2 H21_2 1_555 1_555
H22_2 C22_2 1_555 1_555
C23_2 C22_2 1_555 1_555
H23_2 C23_2 1_555 1_555
H24_2 C23_2 1_555 1_555
C24_2 C23_2 1_555 1_555
O1_2 C6_2 1_555 1_555
O4_2 Tb9 1_555 1_555
O30 C24_2 1_555 1_555
O31 C24_2 1_555 1_555
N4_2 C13_2 1_555 1_555
N5_2 C13_2 1_555 1_555
N6_2 C14_2 1_555 1_555
Tb9 O14_2 1_555 1_555
C6_2 O3_2 1_555 1_555
C14_2 N5_2 1_555 1_555
C15_2 N4_2 1_555 1_555
C15_2 N6_2 1_555 1_555
C16_2 N4_2 1_555 1_555
C18_2 O14_2 1_555 1_555
C18_2 O15_2 1_555 1_555
C22_2 N6_2 1_555 1_555
C19_2 H17_2 1_555 1_555
H18_2 C19_2 1_555 1_555
C20_2 C19_2 1_555 1_555
H19_2 C20_2 1_555 1_555
H20_2 C20_2 1_555 1_555
C21_2 C20_2 1_555 1_555
O28 C21_2 1_555 1_555

#END
