
###############################################################################
#
# This file contains modified crystal structure data generated from the
# MOF subset of the Cambridge Structural Database (CSD) v542 
# hosted by the Cambridge Crystallographic Data Centre (CCDC).
#
# This work is licensed under the Creative Commons
# Attribution-NonCommercial-ShareAlike 4.0 International License.
# To view a copy of this license, visit
# http://creativecommons.org/licenses/by-nc-sa/4.0/
# or send a letter to
# Creative Commons, PO Box 1866, Mountain View, CA 94042, USA.
#
# CIF created using the CSD Python API on 22 February 2021
# The structure has been converted into the P1 space group
# The structure has a 3D framework
# The original CSD entry BOYJIL is in the monoclinic crystal system
# The framework has been calculated to contain at least 10.0% void space
# The void calculation uses a probe of radius 1.32A, grid spacing 0.4
#
###############################################################################

data_BOYJIL
_chemical_formula_moiety         '(C158 H96 N4 O21 Yb4)n'
_symmetry_cell_setting           triclinic
_symmetry_space_group_name_H-M   'P 1'
_symmetry_Int_Tables_number      1
_space_group_name_Hall           'P 1'
loop_
_symmetry_equiv_pos_site_id
_symmetry_equiv_pos_as_xyz
1 x,y,z
_cell_length_a                   22.962(2)
_cell_length_b                   25.022(3)
_cell_length_c                   6.9965(2)
_cell_angle_alpha                90
_cell_angle_beta                 106.463(2)
_cell_angle_gamma                90
_cell_volume                     3855.07
loop_
_atom_site_label
_atom_site_type_symbol
_atom_site_fract_x
_atom_site_fract_y
_atom_site_fract_z
Yb1 Yb 0.30607(3) 0.01666(2) 0.36211(4)
C1 C 0.1990(5) 0.0481(5) 0.4630(15)
C2 C 0.1404(5) 0.0602(5) 0.5063(16)
C3 C 0.0889(6) 0.0604(5) 0.3564(17)
H1 H 0.0909 0.0562 0.2263
C4 C 0.0294(7) 0.0729(7) 0.580(2)
C5 C 0.0340(6) 0.0665(6) 0.3899(17)
C6 C 0.1363(7) 0.0678(6) 0.693(2)
H3 H 0.1717 0.0686 0.7980
C7 C 0.0819(6) 0.0744(5) 0.7328(17)
H4 H 0.0806 0.0799 0.8629
O1 O 0.2015(5) 0.0473(5) 0.2917(15)
O2 O 0.2454(3) 0.0374(3) 0.6043(10)
O8 O 0.3649(4) 0.0370(3) 0.7089(10)
O11 O 0.3052(5) 0.0617(2) 0.0605(10)
O12 O 0.4122(6) 0.0464(5) 0.4824(15)
O13 O 0.3045(4) 0.1131(2) 0.3087(9)
C27 C 0.4133(5) 0.0469(5) 0.6580(15)
C28 C 0.4679(5) 0.0585(5) 0.8120(15)
C29 C 0.4681(6) 0.0699(6) 1.000(2)
C32 C 0.5796(5) 0.0587(6) 0.9219(17)
H19 H 0.6163 0.0542 0.8920
C33 C 0.5259(6) 0.0539(6) 0.7729(15)
H20 H 0.5272 0.0475 0.6432
C35 C 0.2904(6) 0.2067(5) 0.0737(16)
H22 H 0.2882 0.2115 0.2033
C37 C 0.3023(7) 0.1093(4) 0.1325(16)
C39 C 0.2984(6) 0.1558(4) 0.0067(17)
Yb4 Yb 0.30607(3) 0.98334(2) 0.86211(4)
O7 O 0.2454(3) 0.9626(3) 0.1043(10)
O9 O 0.3649(4) 0.9630(3) 0.2089(10)
O10 O 0.3052(5) 0.9383(2) 0.5605(10)
C2_2 C 0.1404(5) 0.9398(5) 0.0063(16)
C4_2 C 0.0294(7) 0.9271(7) 0.080(2)
C6_2 C 0.1363(7) 0.9322(6) 0.193(2)
H3_2 H 0.1717 0.9314 0.2980
C7_2 C 0.0819(6) 0.9256(5) 0.2328(17)
H4_2 H 0.0806 0.9201 0.3629
C1_2 C 0.1990(5) 0.9519(5) 0.9630(15)
C3_2 C 0.0889(6) 0.9396(5) 0.8564(17)
H1_2 H 0.0909 0.9438 0.7263
C5_2 C 0.0340(6) 0.9335(6) 0.8899(17)
O1_2 O 0.2015(5) 0.9527(5) 0.7917(15)
O12_2 O 0.4122(6) 0.9536(5) 0.9824(15)
O13_2 O 0.3045(4) 0.8869(2) 0.8087(9)
H2 H 0.9990 0.9336 0.7829
C9 C 0.9175(5) 0.9042(4) 0.9760(17)
H5 H 0.9218 0.8913 0.8561
H6 H 0.8283 0.8905 0.9099
C17 C 0.6416(6) 0.8847(5) 0.9087(17)
H10 H 0.6104 0.8604 0.9001
C18 C 0.6350(6) 0.9261(5) 0.7704(16)
C19 C 0.6824(5) 0.9607(4) 0.7822(16)
H11 H 0.6788 0.9867 0.6846
C20 C 0.7349(5) 0.9575(5) 0.9354(15)
H12 H 0.7652 0.9829 0.9469
C27_2 C 0.4133(5) 0.9531(5) 0.1580(15)
C28_2 C 0.4679(5) 0.9415(5) 0.3120(15)
C29_2 C 0.4681(6) 0.9301(6) 0.500(2)
H17 H 0.4314 0.9277 0.5311
C30 C 0.5225(6) 0.9217(5) 0.6489(17)
H18 H 0.5217 0.9105 0.7749
C31 C 0.5799(7) 0.9303(6) 0.608(2)
C32_2 C 0.5796(5) 0.9413(6) 0.4219(17)
H19_2 H 0.6163 0.9458 0.3920
C33_2 C 0.5259(6) 0.9461(6) 0.2729(15)
H20_2 H 0.5272 0.9525 0.1432
C22 C 0.3394(6) 0.7076(6) 0.0318(18)
H14 H 0.3672 0.7355 0.0482
C23 C 0.2978(6) 0.7076(4) 0.1434(15)
C24 C 0.2589(5) 0.6647(4) 0.1195(15)
H15 H 0.2308 0.6639 0.1927
C26 C 0.2960(6) 0.7536(5) 0.2666(15)
C34 C 0.3072(9) 0.8049(5) 0.2086(17)
H21 H 0.3177 0.8093 0.0904
C35_2 C 0.2904(6) 0.7933(5) 0.5737(16)
H22_2 H 0.2882 0.7885 0.7033
C36 C 0.2857(8) 0.7494(6) 0.4491(18)
H23 H 0.2752 0.7164 0.4906
C37_2 C 0.3023(7) 0.8907(4) 0.6325(16)
C38 C 0.3035(8) 0.8488(4) 0.3184(16)
H24 H 0.3044 0.8826 0.2640
C39_2 C 0.2984(6) 0.8442(4) 0.5067(17)
C22_2 C 0.8394(6) 0.2076(6) 0.0318(18)
H14_2 H 0.8672 0.2355 0.0482
C23_2 C 0.7978(6) 0.2076(4) 0.1434(15)
C24_2 C 0.7589(5) 0.1647(4) 0.1195(15)
H15_2 H 0.7308 0.1639 0.1927
C26_2 C 0.7960(6) 0.2536(5) 0.2666(15)
C34_2 C 0.8072(9) 0.3049(5) 0.2086(17)
H21_2 H 0.8177 0.3093 0.0904
C35_3 C 0.7904(6) 0.2933(5) 0.5737(16)
H22_3 H 0.7882 0.2885 0.7033
C36_2 C 0.7857(8) 0.2494(6) 0.4491(18)
H23_2 H 0.7752 0.2164 0.4906
C37_3 C 0.8023(7) 0.3907(4) 0.6325(16)
C38_2 C 0.8035(8) 0.3488(4) 0.3184(16)
H24_2 H 0.8044 0.3826 0.2640
C39_3 C 0.7984(6) 0.3442(4) 0.5067(17)
O4 O 0.8052(5) 0.4383(2) 0.5605(10)
O6 O 0.8045(4) 0.3869(2) 0.8087(9)
Yb5 Yb 0.80607(3) 0.51666(2) 0.36211(4)
Yb6 Yb 0.80607(3) 0.48334(2) 0.86211(4)
C35_4 C 0.7904(6) 0.7067(5) 0.0737(16)
H22_4 H 0.7882 0.7115 0.2033
C37_4 C 0.8023(7) 0.6093(4) 0.1325(16)
C39_4 C 0.7984(6) 0.6558(4) 0.0067(17)
O4_2 O 0.8052(5) 0.5617(2) 0.0605(10)
O6_2 O 0.8045(4) 0.6131(2) 0.3087(9)
C8 C 0.9685(5) 0.9244(5) 0.1201(15)
C10 C 0.8616(6) 0.9032(5) 0.0089(16)
C11 C 0.9578(5) 0.9434(5) 0.2882(16)
H7 H 0.9901 0.9575 0.3872
C12 C 0.9024(5) 0.9428(5) 0.3187(15)
H8 H 0.8974 0.9578 0.4346
C13 C 0.8537(5) 0.9206(5) 0.1839(15)
C14 C 0.8008(7) 0.8750(3) 0.380(2)
C15 C 0.7429(5) 0.9164(4) 0.0732(13)
C16 C 0.6951(5) 0.8806(4) 0.0575(16)
H9 H 0.6996 0.8533 0.1507
C21 C 0.8406(4) 0.8319(4) 0.4002(17)
H13 H 0.8679 0.8302 0.3241
C22_3 C 0.8394(6) 0.7924(6) 0.5318(18)
H14_3 H 0.8672 0.7645 0.5482
C23_3 C 0.7978(6) 0.7924(4) 0.6434(15)
C24_3 C 0.7589(5) 0.8353(4) 0.6195(15)
H15_3 H 0.7308 0.8361 0.6927
C25 C 0.7596(6) 0.8783(5) 0.4891(16)
H16 H 0.7335 0.9073 0.4776
C26_3 C 0.7960(6) 0.7464(5) 0.7666(15)
C34_3 C 0.8072(9) 0.6951(5) 0.7086(17)
H21_3 H 0.8177 0.6907 0.5904
C36_3 C 0.7857(8) 0.7506(6) 0.9491(18)
H23_3 H 0.7752 0.7836 0.9906
C38_3 C 0.8035(8) 0.6512(4) 0.8184(16)
H24_3 H 0.8044 0.6174 0.7640
N1 N 0.7977(4) 0.9139(3) 0.2294(12)
C1_3 C 0.6990(5) 0.5481(5) 0.4630(15)
C2_3 C 0.6404(5) 0.5602(5) 0.5063(16)
C3_3 C 0.5889(6) 0.5604(5) 0.3564(17)
H1_3 H 0.5909 0.5562 0.2263
C4_3 C 0.5294(7) 0.5729(7) 0.580(2)
C5_3 C 0.5340(6) 0.5665(6) 0.3899(17)
H2_2 H 0.4990 0.5664 0.2829
C6_3 C 0.6363(7) 0.5678(6) 0.693(2)
H3_3 H 0.6717 0.5686 0.7980
C7_3 C 0.5819(6) 0.5744(5) 0.7328(17)
H4_3 H 0.5806 0.5799 0.8629
C8_2 C 0.4685(5) 0.5756(5) 0.6201(15)
C9_2 C 0.4175(5) 0.5958(4) 0.4760(17)
H5_2 H 0.4218 0.6087 0.3561
C10_2 C 0.3616(6) 0.5968(5) 0.5089(16)
H6_2 H 0.3283 0.6095 0.4099
C11_2 C 0.4578(5) 0.5566(5) 0.7882(16)
H7_2 H 0.4901 0.5425 0.8872
C12_2 C 0.4024(5) 0.5572(5) 0.8187(15)
H8_2 H 0.3974 0.5422 0.9346
C13_2 C 0.3537(5) 0.5794(5) 0.6839(15)
C14_2 C 0.3008(7) 0.6250(3) 0.880(2)
C15_2 C 0.2429(5) 0.5836(4) 0.5732(13)
C16_2 C 0.1951(5) 0.6194(4) 0.5575(16)
H9_2 H 0.1996 0.6467 0.6507
C17_2 C 0.1416(6) 0.6153(5) 0.4087(17)
H10_2 H 0.1104 0.6396 0.4001
C18_2 C 0.1350(6) 0.5739(5) 0.2704(16)
C19_2 C 0.1824(5) 0.5393(4) 0.2822(16)
H11_2 H 0.1788 0.5133 0.1846
C20_2 C 0.2349(5) 0.5425(5) 0.4354(15)
H12_2 H 0.2652 0.5171 0.4469
C21_2 C 0.3406(4) 0.6681(4) 0.9002(17)
H13_2 H 0.3679 0.6698 0.8241
C25_2 C 0.2596(6) 0.6217(5) 0.9891(16)
H16_2 H 0.2335 0.5927 0.9776
C30_2 C 0.0225(6) 0.5783(5) 0.1489(17)
H18_2 H 0.0217 0.5895 0.2749
C31_2 C 0.0799(7) 0.5697(6) 0.108(2)
N1_2 N 0.2977(4) 0.5861(3) 0.7294(12)
O1_3 O 0.7015(5) 0.5473(5) 0.2917(15)
O2_2 O 0.7454(3) 0.5374(3) 0.6043(10)
O7_2 O 0.7454(3) 0.4626(3) 0.1043(10)
O8_2 O 0.8649(4) 0.5370(3) 0.7089(10)
O9_2 O 0.8649(4) 0.4630(3) 0.2089(10)
O12_3 O 0.9122(6) 0.5464(5) 0.4824(15)
C27_3 C 0.9133(5) 0.5469(5) 0.6580(15)
C28_3 C 0.9679(5) 0.5585(5) 0.8120(15)
C29_3 C 0.9681(6) 0.5699(6) 1.000(2)
C2_4 C 0.6404(5) 0.4398(5) 0.0063(16)
C4_4 C 0.5294(7) 0.4271(7) 0.080(2)
C6_4 C 0.6363(7) 0.4322(6) 0.193(2)
H3_4 H 0.6717 0.4314 0.2980
C7_4 C 0.5819(6) 0.4256(5) 0.2328(17)
H4_4 H 0.5806 0.4201 0.3629
C8_3 C 0.4685(5) 0.4244(5) 0.1201(15)
C10_3 C 0.3616(6) 0.4032(5) 0.0089(16)
C11_3 C 0.4578(5) 0.4434(5) 0.2882(16)
H7_3 H 0.4901 0.4575 0.3872
C12_3 C 0.4024(5) 0.4428(5) 0.3187(15)
H8_3 H 0.3974 0.4578 0.4346
C13_3 C 0.3537(5) 0.4206(5) 0.1839(15)
C14_3 C 0.3008(7) 0.3750(3) 0.380(2)
C15_3 C 0.2429(5) 0.4164(4) 0.0732(13)
C16_3 C 0.1951(5) 0.3806(4) 0.0575(16)
H9_3 H 0.1996 0.3533 0.1507
C21_3 C 0.3406(4) 0.3319(4) 0.4002(17)
H13_3 H 0.3679 0.3302 0.3241
C22_4 C 0.3394(6) 0.2924(6) 0.5318(18)
H14_4 H 0.3672 0.2645 0.5482
C23_4 C 0.2978(6) 0.2924(4) 0.6434(15)
C24_4 C 0.2589(5) 0.3353(4) 0.6195(15)
H15_4 H 0.2308 0.3361 0.6927
C25_3 C 0.2596(6) 0.3783(5) 0.4891(16)
H16_3 H 0.2335 0.4073 0.4776
C26_4 C 0.2960(6) 0.2464(5) 0.7666(15)
C34_4 C 0.3072(9) 0.1951(5) 0.7086(17)
H21_4 H 0.3177 0.1907 0.5904
C36_4 C 0.2857(8) 0.2506(6) 0.9491(18)
H23_4 H 0.2752 0.2836 0.9906
C38_4 C 0.3035(8) 0.1512(4) 0.8184(16)
H24_4 H 0.3044 0.1174 0.7640
N1_3 N 0.2977(4) 0.4139(3) 0.2294(12)
C1_4 C 0.6990(5) 0.4519(5) 0.9630(15)
C3_4 C 0.5889(6) 0.4396(5) 0.8564(17)
H1_4 H 0.5909 0.4438 0.7263
C5_4 C 0.5340(6) 0.4335(6) 0.8899(17)
H2_3 H 0.4990 0.4336 0.7829
C9_3 C 0.4175(5) 0.4042(4) 0.9760(17)
H5_3 H 0.4218 0.3913 0.8561
H6_3 H 0.3283 0.3905 0.9099
C17_3 C 0.1416(6) 0.3847(5) 0.9087(17)
H10_3 H 0.1104 0.3604 0.9001
C18_3 C 0.1350(6) 0.4261(5) 0.7704(16)
C19_3 C 0.1824(5) 0.4607(4) 0.7822(16)
H11_3 H 0.1788 0.4867 0.6846
C20_3 C 0.2349(5) 0.4575(5) 0.9354(15)
H12_3 H 0.2652 0.4829 0.9469
C30_3 C 0.0225(6) 0.4217(5) 0.6489(17)
H18_3 H 0.0217 0.4105 0.7749
C31_3 C 0.0799(7) 0.4303(6) 0.608(2)
C32_3 C 0.0796(5) 0.4413(6) 0.4219(17)
H19_3 H 0.1163 0.4458 0.3920
C33_3 C 0.0259(6) 0.4461(6) 0.2729(15)
H20_3 H 0.0272 0.4525 0.1432
O1_4 O 0.7015(5) 0.4527(5) 0.7917(15)
O12_4 O 0.9122(6) 0.4536(5) 0.9824(15)
C27_4 C 0.9133(5) 0.4531(5) 0.1580(15)
C28_4 C 0.9679(5) 0.4415(5) 0.3120(15)
C29_4 C 0.9681(6) 0.4301(6) 0.500(2)
H17_2 H 0.9314 0.4277 0.5311
H2_4 H 0.9990 0.0664 0.2829
C8_4 C 0.9685(5) 0.0756(5) 0.6201(15)
C9_4 C 0.9175(5) 0.0958(4) 0.4760(17)
H5_4 H 0.9218 0.1087 0.3561
C10_4 C 0.8616(6) 0.0968(5) 0.5089(16)
H6_4 H 0.8283 0.1095 0.4099
C11_4 C 0.9578(5) 0.0566(5) 0.7882(16)
H7_4 H 0.9901 0.0425 0.8872
C12_4 C 0.9024(5) 0.0572(5) 0.8187(15)
H8_4 H 0.8974 0.0422 0.9346
C13_4 C 0.8537(5) 0.0794(5) 0.6839(15)
C14_4 C 0.8008(7) 0.1250(3) 0.880(2)
C15_4 C 0.7429(5) 0.0836(4) 0.5732(13)
C16_4 C 0.6951(5) 0.1194(4) 0.5575(16)
H9_4 H 0.6996 0.1467 0.6507
C17_4 C 0.6416(6) 0.1153(5) 0.4087(17)
H10_4 H 0.6104 0.1396 0.4001
C18_4 C 0.6350(6) 0.0739(5) 0.2704(16)
C19_4 C 0.6824(5) 0.0393(4) 0.2822(16)
H11_4 H 0.6788 0.0133 0.1846
C20_4 C 0.7349(5) 0.0425(5) 0.4354(15)
H12_4 H 0.7652 0.0171 0.4469
C21_4 C 0.8406(4) 0.1681(4) 0.9002(17)
H13_4 H 0.8679 0.1698 0.8241
C25_4 C 0.7596(6) 0.1217(5) 0.9891(16)
H16_4 H 0.7335 0.0927 0.9776
C29_5 C 0.4681(6) 0.0699(6) 0.000(2)
H17_3 H 0.4314 0.0723 0.0311
C30_4 C 0.5225(6) 0.0783(5) 0.1489(17)
H18_4 H 0.5217 0.0895 0.2749
C31_4 C 0.5799(7) 0.0697(6) 0.108(2)
N1_4 N 0.7977(4) 0.0861(3) 0.7294(12)
C32_4 C 0.0796(5) 0.5587(6) 0.9219(17)
H19_4 H 0.1163 0.5542 0.8920
C33_4 C 0.0259(6) 0.5539(6) 0.7729(15)
H20_4 H 0.0272 0.5475 0.6432
C29_6 C 0.9681(6) 0.5699(6) 0.000(2)
H17_4 H 0.9314 0.5723 0.0311
loop_
_geom_bond_atom_site_label_1
_geom_bond_atom_site_label_2
_geom_bond_site_symmetry_1
_geom_bond_site_symmetry_2
Yb1 O1 1_555 1_555
C1 C2 1_555 1_555
C2 C3 1_555 1_555
C3 H1 1_555 1_555
C4 C5 1_555 1_555
C5 C3 1_555 1_555
C6 C2 1_555 1_555
H3 C6 1_555 1_555
C7 C4 1_555 1_555
H4 C7 1_555 1_555
O1 C1 1_555 1_555
O2 Yb1 1_555 1_555
O8 Yb1 1_555 1_555
O11 Yb1 1_555 1_555
O12 Yb1 1_555 1_555
O13 Yb1 1_555 1_555
C1 O2 1_555 1_555
C6 C7 1_555 1_555
C27 C28 1_555 1_555
C28 C29 1_555 1_555
H19 C32 1_555 1_555
C33 C28 1_555 1_555
H20 C33 1_555 1_555
O8 C27 1_555 1_555
O12 C27 1_555 1_555
C32 C33 1_555 1_555
C35 H22 1_555 1_555
C37 C39 1_555 1_555
C39 C35 1_555 1_555
O11 C37 1_555 1_555
O13 C37 1_555 1_555
Yb4 O10 1_555 1_555
C6_2 C2_2 1_555 1_555
H3_2 C6_2 1_555 1_555
C7_2 C4_2 1_555 1_555
H4_2 C7_2 1_555 1_555
C6_2 C7_2 1_555 1_555
Yb4 O1_2 1_555 1_555
C3_2 H1_2 1_555 1_555
C5_2 C3_2 1_555 1_555
O1_2 C1_2 1_555 1_555
O12_2 Yb4 1_555 1_555
O13_2 Yb4 1_555 1_555
H5 C9 1_555 1_555
H10 C17 1_555 1_555
C18 C17 1_555 1_555
C19 C18 1_555 1_555
H11 C19 1_555 1_555
H12 C20 1_555 1_555
C27_2 C28_2 1_555 1_555
C28_2 C29_2 1_555 1_555
C29_2 H17 1_555 1_555
C30 C29_2 1_555 1_555
H18 C30 1_555 1_555
C31 C18 1_555 1_555
C32_2 C31 1_555 1_555
H19_2 C32_2 1_555 1_555
C33_2 C28_2 1_555 1_555
H20_2 C33_2 1_555 1_555
O9 C27_2 1_555 1_555
C19 C20 1_555 1_555
C30 C31 1_555 1_555
C32_2 C33_2 1_555 1_555
H14 C22 1_555 1_555
C23 C22 1_555 1_555
C24 C23 1_555 1_555
H15 C24 1_555 1_555
C26 C23 1_555 1_555
C34 C26 1_555 1_555
H21 C34 1_555 1_555
C35_2 H22_2 1_555 1_555
C36 C26 1_555 1_555
H23 C36 1_555 1_555
C37_2 C39_2 1_555 1_555
C38 C34 1_555 1_555
H24 C38 1_555 1_555
C39_2 C35_2 1_555 1_555
O10 C37_2 1_555 1_555
O13_2 C37_2 1_555 1_555
C35_2 C36 1_555 1_555
C38 C39_2 1_555 1_555
H14_2 C22_2 1_555 1_555
C23_2 C22_2 1_555 1_555
C24_2 C23_2 1_555 1_555
H15_2 C24_2 1_555 1_555
C26_2 C23_2 1_555 1_555
C34_2 C26_2 1_555 1_555
H21_2 C34_2 1_555 1_555
C35_3 H22_3 1_555 1_555
C36_2 C26_2 1_555 1_555
H23_2 C36_2 1_555 1_555
C37_3 C39_3 1_555 1_555
C38_2 C34_2 1_555 1_555
H24_2 C38_2 1_555 1_555
C39_3 C35_3 1_555 1_555
O4 C37_3 1_555 1_555
O6 C37_3 1_555 1_555
Yb5 O4 1_555 1_555
Yb6 O4 1_555 1_555
C35_3 C36_2 1_555 1_555
C38_2 C39_3 1_555 1_555
O6 Yb6 1_555 1_555
C35_4 H22_4 1_555 1_555
C37_4 C39_4 1_555 1_555
C39_4 C35_4 1_555 1_555
O4_2 C37_4 1_555 1_555
O6_2 C37_4 1_555 1_555
Yb5 O4_2 1_555 1_555
O6_2 Yb5 1_555 1_555
C11 C8 1_555 1_555
H7 C11 1_555 1_555
C12 C11 1_555 1_555
H8 C12 1_555 1_555
C13 C10 1_555 1_555
C14 C21 1_555 1_555
C15 C16 1_555 1_555
C16 H9 1_555 1_555
C21 H13 1_555 1_555
C22_3 C21 1_555 1_555
H14_3 C22_3 1_555 1_555
C23_3 C22_3 1_555 1_555
C24_3 C23_3 1_555 1_555
H15_3 C24_3 1_555 1_555
C25 C14 1_555 1_555
H16 C25 1_555 1_555
C26_3 C23_3 1_555 1_555
C34_3 C26_3 1_555 1_555
H21_3 C34_3 1_555 1_555
C36_3 C26_3 1_555 1_555
H23_3 C36_3 1_555 1_555
C38_3 C34_3 1_555 1_555
H24_3 C38_3 1_555 1_555
N1 C13 1_555 1_555
C12 C13 1_555 1_555
C14 N1 1_555 1_555
C15 N1 1_555 1_555
C24_3 C25 1_555 1_555
Yb5 O1_3 1_555 1_555
C1_3 C2_3 1_555 1_555
C2_3 C3_3 1_555 1_555
C3_3 H1_3 1_555 1_555
C4_3 C5_3 1_555 1_555
C5_3 C3_3 1_555 1_555
H2_2 C5_3 1_555 1_555
C6_3 C2_3 1_555 1_555
H3_3 C6_3 1_555 1_555
C7_3 C4_3 1_555 1_555
H4_3 C7_3 1_555 1_555
C8_2 C4_3 1_555 1_555
C9_2 C8_2 1_555 1_555
H5_2 C9_2 1_555 1_555
C10_2 C9_2 1_555 1_555
H6_2 C10_2 1_555 1_555
C11_2 C8_2 1_555 1_555
H7_2 C11_2 1_555 1_555
C12_2 C11_2 1_555 1_555
H8_2 C12_2 1_555 1_555
C13_2 C10_2 1_555 1_555
C14_2 C21_2 1_555 1_555
C15_2 C16_2 1_555 1_555
C16_2 H9_2 1_555 1_555
C17_2 C16_2 1_555 1_555
H10_2 C17_2 1_555 1_555
C18_2 C17_2 1_555 1_555
C19_2 C18_2 1_555 1_555
H11_2 C19_2 1_555 1_555
C20_2 C15_2 1_555 1_555
H12_2 C20_2 1_555 1_555
C21_2 H13_2 1_555 1_555
C25_2 C14_2 1_555 1_555
H16_2 C25_2 1_555 1_555
H18_2 C30_2 1_555 1_555
C31_2 C18_2 1_555 1_555
N1_2 C13_2 1_555 1_555
O1_3 C1_3 1_555 1_555
O2_2 Yb5 1_555 1_555
Yb6 O2_2 1_555 1_555
O7_2 Yb5 1_555 1_555
O8_2 Yb5 1_555 1_555
O9_2 Yb5 1_555 1_555
O12_3 Yb5 1_555 1_555
C1_3 O2_2 1_555 1_555
C6_3 C7_3 1_555 1_555
C12_2 C13_2 1_555 1_555
C14_2 N1_2 1_555 1_555
C15_2 N1_2 1_555 1_555
C19_2 C20_2 1_555 1_555
C30_2 C31_2 1_555 1_555
Yb6 O8_2 1_555 1_555
C27_3 C28_3 1_555 1_555
C28_3 C29_3 1_555 1_555
O8_2 C27_3 1_555 1_555
O12_3 C27_3 1_555 1_555
C6_4 C2_4 1_555 1_555
H3_4 C6_4 1_555 1_555
C7_4 C4_4 1_555 1_555
H4_4 C7_4 1_555 1_555
C8_3 C4_4 1_555 1_555
C11_3 C8_3 1_555 1_555
H7_3 C11_3 1_555 1_555
C12_3 C11_3 1_555 1_555
H8_3 C12_3 1_555 1_555
C13_3 C10_3 1_555 1_555
C14_3 C21_3 1_555 1_555
C15_3 C16_3 1_555 1_555
C16_3 H9_3 1_555 1_555
C21_3 H13_3 1_555 1_555
C22_4 C21_3 1_555 1_555
H14_4 C22_4 1_555 1_555
C23_4 C22_4 1_555 1_555
C24_4 C23_4 1_555 1_555
H15_4 C24_4 1_555 1_555
C25_3 C14_3 1_555 1_555
H16_3 C25_3 1_555 1_555
C26_4 C23_4 1_555 1_555
C34_4 C26_4 1_555 1_555
H21_4 C34_4 1_555 1_555
C36_4 C26_4 1_555 1_555
H23_4 C36_4 1_555 1_555
C38_4 C34_4 1_555 1_555
H24_4 C38_4 1_555 1_555
N1_3 C13_3 1_555 1_555
C6_4 C7_4 1_555 1_555
C12_3 C13_3 1_555 1_555
C14_3 N1_3 1_555 1_555
C15_3 N1_3 1_555 1_555
C24_4 C25_3 1_555 1_555
Yb6 O1_4 1_555 1_555
C3_4 H1_4 1_555 1_555
C5_4 C3_4 1_555 1_555
H2_3 C5_4 1_555 1_555
H5_3 C9_3 1_555 1_555
H10_3 C17_3 1_555 1_555
C18_3 C17_3 1_555 1_555
C19_3 C18_3 1_555 1_555
H11_3 C19_3 1_555 1_555
H12_3 C20_3 1_555 1_555
H18_3 C30_3 1_555 1_555
C31_3 C18_3 1_555 1_555
C32_3 C31_3 1_555 1_555
H19_3 C32_3 1_555 1_555
H20_3 C33_3 1_555 1_555
O1_4 C1_4 1_555 1_555
O12_4 Yb6 1_555 1_555
C19_3 C20_3 1_555 1_555
C30_3 C31_3 1_555 1_555
C32_3 C33_3 1_555 1_555
C27_4 C28_4 1_555 1_555
C28_4 C29_4 1_555 1_555
C29_4 H17_2 1_555 1_555
O9_2 C27_4 1_555 1_555
C9_4 C8_4 1_555 1_555
H5_4 C9_4 1_555 1_555
C10_4 C9_4 1_555 1_555
H6_4 C10_4 1_555 1_555
C11_4 C8_4 1_555 1_555
H7_4 C11_4 1_555 1_555
C12_4 C11_4 1_555 1_555
H8_4 C12_4 1_555 1_555
C13_4 C10_4 1_555 1_555
C14_4 C21_4 1_555 1_555
C15_4 C16_4 1_555 1_555
C16_4 H9_4 1_555 1_555
C17_4 C16_4 1_555 1_555
H10_4 C17_4 1_555 1_555
C18_4 C17_4 1_555 1_555
C19_4 C18_4 1_555 1_555
H11_4 C19_4 1_555 1_555
C20_4 C15_4 1_555 1_555
H12_4 C20_4 1_555 1_555
C21_4 H13_4 1_555 1_555
C25_4 C14_4 1_555 1_555
H16_4 C25_4 1_555 1_555
C29_5 H17_3 1_555 1_555
C30_4 C29_5 1_555 1_555
H18_4 C30_4 1_555 1_555
C31_4 C18_4 1_555 1_555
N1_4 C13_4 1_555 1_555
C12_4 C13_4 1_555 1_555
C14_4 N1_4 1_555 1_555
C15_4 N1_4 1_555 1_555
C19_4 C20_4 1_555 1_555
C30_4 C31_4 1_555 1_555
H19_4 C32_4 1_555 1_555
H20_4 C33_4 1_555 1_555
C32_4 C33_4 1_555 1_555
C29_6 H17_4 1_555 1_555

#END
