
###############################################################################
#
# This file contains modified crystal structure data generated from the
# MOF subset of the Cambridge Structural Database (CSD) v542 
# hosted by the Cambridge Crystallographic Data Centre (CCDC).
#
# This work is licensed under the Creative Commons
# Attribution-NonCommercial-ShareAlike 4.0 International License.
# To view a copy of this license, visit
# http://creativecommons.org/licenses/by-nc-sa/4.0/
# or send a letter to
# Creative Commons, PO Box 1866, Mountain View, CA 94042, USA.
#
# CIF created using the CSD Python API on 22 February 2021
# The structure has been converted into the P1 space group
# The structure has a 3D framework
# The original CSD entry BUXQIX is in the monoclinic crystal system
# The framework has been calculated to contain at least 10.0% void space
# The void calculation uses a probe of radius 1.32A, grid spacing 0.4
#
###############################################################################

data_BUXQIX
_chemical_formula_moiety         '(C120 H80 Cu4 N8 O14)n'
_symmetry_cell_setting           triclinic
_symmetry_space_group_name_H-M   'P 1'
_symmetry_Int_Tables_number      1
_space_group_name_Hall           'P 1'
loop_
_symmetry_equiv_pos_site_id
_symmetry_equiv_pos_as_xyz
1 x,y,z
_cell_length_a                   9.3627(2)
_cell_length_b                   22.8413(3)
_cell_length_c                   14.02640(10)
_cell_angle_alpha                90
_cell_angle_beta                 97.528(2)
_cell_angle_gamma                90
_cell_volume                     2973.78
loop_
_atom_site_label
_atom_site_type_symbol
_atom_site_fract_x
_atom_site_fract_y
_atom_site_fract_z
O3 O 0.3494(2) 0.14608(9) 0.61085(15)
O4 O 0.2321(2) 0.07355(9) 0.67122(16)
C1 C 0.0089(5) 0.19935(15) 0.8197(3)
C9 C 0.1319(5) 0.22657(16) 0.6566(3)
H6 H 0.174726 0.236612 0.602691
C10 C 0.0432(5) 0.26650(16) 0.6960(3)
H7 H 0.022519 0.302475 0.666328
C12 C 0.0930(5) 0.15977(16) 0.7800(4)
H8 H 0.108634 0.123319 0.809017
C13 C 0.1557(3) 0.17170(13) 0.6984(2)
C14 C 0.2507(3) 0.12750(12) 0.6576(2)
Cu3 Cu 0.41617(4) 0.05637(2) 0.58918(2)
N2 N 0.2721(2) 0.05632(10) 0.45584(17)
C22 C 0.0518(3) 0.07836(15) 0.0976(2)
H14 H 0.142261 0.095788 0.102771
C23 C 0.0057(3) 0.05141(13) 0.1790(2)
C26 C 0.1625(3) 0.01790(13) 0.4367(2)
C27 C 0.0744(3) 0.01427(13) 0.3492(2)
C28 C 0.0966(3) 0.05288(13) 0.2740(2)
C29 C 0.2091(3) 0.09402(14) 0.2951(2)
H19 H 0.227984 0.121005 0.248699
C30 C 0.2911(3) 0.09422(13) 0.3844(2)
H20 H 0.363726 0.122061 0.396160
N1 N 0.5554(2) 0.05489(10) 0.72412(17)
C15 C 0.6547(4) 0.09675(15) 0.7485(2)
H9 H 0.665106 0.126157 0.704100
C16 C 0.7422(4) 0.09847(16) 0.8361(2)
H10 H 0.807588 0.128928 0.849771
C17 C 0.7319(3) 0.05377(14) 0.9049(2)
C18 C 0.6285(3) 0.01030(14) 0.8785(2)
C19 C 0.5443(3) 0.01290(13) 0.7905(2)
C20 C 0.8266(3) 0.05288(14) 0.9984(2)
H13 H 0.995495 0.097465 0.957309
O5 O 0.5895(2) 0.08786(9) 0.52797(14)
O1 O 0.6016(2) 0.03175(8) 0.39709(14)
H1 H 0.967735 0.310463 0.374342
C2 C 0.6315(3) 0.07679(12) 0.4479(2)
C3 C 0.7233(3) 0.12217(13) 0.4065(2)
C4 C 0.8054(5) 0.16260(19) 0.4621(3)
H2 H 0.804010 0.162720 0.528307
C5 C 0.8901(5) 0.2032(2) 0.4218(3)
H3 H 0.945366 0.229738 0.461194
C6 C 0.8930(4) 0.20444(15) 0.3243(3)
C7 C 0.8053(5) 0.16662(17) 0.2662(3)
H4 H 0.802999 0.168457 0.199831
C8 C 0.7205(5) 0.12594(17) 0.3062(3)
H5 H 0.661391 0.100925 0.266281
C11 C 0.9858(4) 0.24751(15) 0.2796(3)
H11 H 0.383175 0.020301 0.079470
H12 H 0.524710 0.016142 0.224140
O2 O 0.5895(2) 0.41214(9) 0.02797(14)
H2_2 H 0.804010 0.337280 0.028307
Cu4 Cu 0.41617(4) 0.44363(2) 0.08918(2)
N3 N 0.7279(2) 0.55632(10) 0.04416(17)
C22_2 C 0.9482(3) 0.57836(15) 0.4024(2)
H14_2 H 0.857739 0.595788 0.397229
C23_2 C 0.9943(3) 0.55141(13) 0.3210(2)
C26_2 C 0.8375(3) 0.51790(13) 0.0633(2)
H17 H 0.855110 0.492206 0.014749
C27_2 C 0.9256(3) 0.51427(13) 0.1508(2)
H18 H 0.998896 0.486532 0.159819
C28_2 C 0.9034(3) 0.55288(13) 0.2260(2)
C29_2 C 0.7909(3) 0.59402(14) 0.2049(2)
H19_2 H 0.772016 0.621005 0.251301
C30_2 C 0.7089(3) 0.59422(13) 0.1156(2)
H20_2 H 0.636274 0.622061 0.103840
O1_2 O 0.3984(2) 0.53175(8) 0.10291(14)
N1_2 N 0.5554(2) 0.44511(10) 0.22412(17)
H1_2 H 0.032265 0.810463 0.125658
C2_2 C 0.3685(3) 0.57679(12) 0.0521(2)
C3_2 C 0.2767(3) 0.62217(13) 0.0935(2)
C4_2 C 0.1946(5) 0.66260(19) 0.0379(3)
C5_2 C 0.1099(5) 0.7032(2) 0.0782(3)
H3_2 H 0.054634 0.729738 0.038806
C6_2 C 0.1070(4) 0.70444(15) 0.1757(3)
C7_2 C 0.1947(5) 0.66662(17) 0.2338(3)
H4_2 H 0.197001 0.668457 0.300169
C8_2 C 0.2795(5) 0.62594(17) 0.1938(3)
H5_2 H 0.338609 0.600925 0.233719
C11_2 C 0.0142(4) 0.74751(15) 0.2204(3)
C15_2 C 0.6547(4) 0.40325(15) 0.2485(2)
H9_2 H 0.665106 0.373843 0.204100
C16_2 C 0.7422(4) 0.40153(16) 0.3361(2)
H10_2 H 0.807588 0.371072 0.349771
C17_2 C 0.7319(3) 0.44623(14) 0.4049(2)
C18_2 C 0.6285(3) 0.48970(14) 0.3785(2)
H11_2 H 0.616825 0.520301 0.420530
C19_2 C 0.5443(3) 0.48710(13) 0.2905(2)
H12_2 H 0.475290 0.516142 0.275860
C20_2 C 0.8266(3) 0.44712(14) 0.4984(2)
C21 C 0.9633(3) 0.42087(16) 0.5097(2)
H13_2 H 0.995495 0.402535 0.457309
C24 C 0.8696(3) 0.47624(15) 0.6675(2)
H15 H 0.838182 0.495262 0.719575
C25 C 0.7821(3) 0.47541(15) 0.5795(2)
H16 H 0.692689 0.493744 0.573712
O6 O 0.3494(2) 0.35392(9) 0.11085(15)
O7 O 0.2321(2) 0.42645(9) 0.17122(16)
C1_2 C 0.0089(5) 0.30065(15) 0.3197(3)
C9_2 C 0.1319(5) 0.27343(16) 0.1566(3)
H6_2 H 0.174726 0.263388 0.102691
C10_2 C 0.0432(5) 0.23350(16) 0.1960(3)
H7_2 H 0.022519 0.197525 0.166328
C12_2 C 0.0930(5) 0.34023(16) 0.2800(4)
H8_2 H 0.108634 0.376681 0.309017
C13_2 C 0.1557(3) 0.32830(13) 0.1984(2)
C14_2 C 0.2507(3) 0.37250(12) 0.1576(2)
Cu1 Cu 0.58383(4) 0.55637(2) 0.91082(2)
O1_3 O 0.6016(2) 0.46825(8) 0.89709(14)
N1_3 N 0.4446(2) 0.55489(10) 0.77588(17)
H1_3 H 0.967735 0.189537 0.874342
C2_3 C 0.6315(3) 0.42321(12) 0.9479(2)
C3_3 C 0.7233(3) 0.37783(13) 0.9065(2)
C4_3 C 0.8054(5) 0.33740(19) 0.9621(3)
C5_3 C 0.8901(5) 0.2968(2) 0.9218(3)
H3_3 H 0.945366 0.270262 0.961194
C6_3 C 0.8930(4) 0.29556(15) 0.8243(3)
C7_3 C 0.8053(5) 0.33338(17) 0.7662(3)
H4_3 H 0.802999 0.331543 0.699831
C8_3 C 0.7205(5) 0.37406(17) 0.8062(3)
H5_3 H 0.661391 0.399075 0.766281
C11_3 C 0.9858(4) 0.25249(15) 0.7796(3)
C15_3 C 0.3453(4) 0.59675(15) 0.7515(2)
H9_3 H 0.334894 0.626157 0.795900
C16_3 C 0.2578(4) 0.59847(16) 0.6639(2)
H10_3 H 0.192412 0.628928 0.650229
C17_3 C 0.2681(3) 0.55377(14) 0.5951(2)
C18_3 C 0.3715(3) 0.51030(14) 0.6215(2)
H11_3 H 0.383175 0.479699 0.579470
C19_3 C 0.4557(3) 0.51290(13) 0.7095(2)
H12_3 H 0.524710 0.483858 0.724140
C20_3 C 0.1734(3) 0.55288(14) 0.5016(2)
C21_2 C 0.0367(3) 0.57913(16) 0.4903(2)
H13_3 H 0.004505 0.597465 0.542691
C24_2 C 0.1304(3) 0.52376(15) 0.3325(2)
H15_2 H 0.161818 0.504738 0.280425
C25_2 C 0.2179(3) 0.52459(15) 0.4205(2)
H16_2 H 0.307311 0.506256 0.426288
O5_2 O 0.4105(2) 0.58786(9) 0.97203(14)
O6_2 O 0.6506(2) 0.64608(9) 0.88915(15)
O7_2 O 0.7679(2) 0.57355(9) 0.82878(16)
C1_3 C 0.9911(5) 0.69935(15) 0.6803(3)
C9_3 C 0.8681(5) 0.72657(16) 0.8434(3)
H6_3 H 0.825274 0.736612 0.897309
C10_3 C 0.9568(5) 0.76650(16) 0.8040(3)
H7_3 H 0.977481 0.802475 0.833672
C12_3 C 0.9070(5) 0.65977(16) 0.7200(4)
H8_3 H 0.891366 0.623319 0.690983
C13_3 C 0.8443(3) 0.67170(13) 0.8016(2)
C14_3 C 0.7493(3) 0.62750(12) 0.8424(2)
N2_2 N 0.2721(2) 0.44368(10) 0.95584(17)
C22_3 C 0.0518(3) 0.42164(15) 0.5976(2)
H14_3 H 0.142261 0.404212 0.602771
C23_3 C 0.0057(3) 0.44859(13) 0.6790(2)
C26_3 C 0.1625(3) 0.48210(13) 0.9367(2)
H17_2 H 0.144890 0.507794 0.985251
C27_3 C 0.0744(3) 0.48573(13) 0.8492(2)
H18_2 H 0.001104 0.513468 0.840181
C28_3 C 0.0966(3) 0.44712(13) 0.7740(2)
C29_3 C 0.2091(3) 0.40598(14) 0.7951(2)
H19_3 H 0.227984 0.378995 0.748699
C30_3 C 0.2911(3) 0.40578(13) 0.8844(2)
H20_3 H 0.363726 0.377939 0.896160
H2_3 H 0.195990 0.662720 0.971693
H17_3 H 0.144890 0.992206 0.485251
H18_3 H 0.001104 0.986532 0.340181
C21_3 C 0.9633(3) 0.07913(16) 0.0097(2)
C24_3 C 0.8696(3) 0.02376(15) 0.1675(2)
H15_3 H 0.838182 0.004738 0.219575
C25_3 C 0.7821(3) 0.02459(15) 0.0795(2)
H16_3 H 0.692689 0.006256 0.073712
O1_4 O 0.3984(2) 0.96825(8) 0.60291(14)
O2_2 O 0.4105(2) 0.91214(9) 0.47203(14)
H1_4 H 0.032265 0.689537 0.625658
C2_4 C 0.3685(3) 0.92321(12) 0.5521(2)
C3_4 C 0.2767(3) 0.87783(13) 0.5935(2)
C4_4 C 0.1946(5) 0.83740(19) 0.5379(3)
H2_4 H 0.195990 0.837280 0.471693
C5_4 C 0.1099(5) 0.7968(2) 0.5782(3)
H3_4 H 0.054634 0.770262 0.538806
C6_4 C 0.1070(4) 0.79556(15) 0.6757(3)
C7_4 C 0.1947(5) 0.83338(17) 0.7338(3)
H4_4 H 0.197001 0.831543 0.800169
C8_4 C 0.2795(5) 0.87406(17) 0.6938(3)
H5_4 H 0.338609 0.899075 0.733719
C11_4 C 0.0142(4) 0.75249(15) 0.7204(3)
H11_4 H 0.616825 0.979699 0.920530
H12_4 H 0.475290 0.983858 0.775860
Cu4_2 Cu 0.58383(4) 0.94363(2) 0.41082(2)
O3_2 O 0.6506(2) 0.85392(9) 0.38915(15)
O4_2 O 0.7679(2) 0.92645(9) 0.32878(16)
C1_4 C 0.9911(5) 0.80065(15) 0.1803(3)
C9_4 C 0.8681(5) 0.77343(16) 0.3434(3)
H6_4 H 0.825274 0.763388 0.397309
C10_4 C 0.9568(5) 0.73350(16) 0.3040(3)
H7_4 H 0.977481 0.697525 0.333672
C12_4 C 0.9070(5) 0.84023(16) 0.2200(4)
H8_4 H 0.891366 0.876681 0.190983
C13_4 C 0.8443(3) 0.82830(13) 0.3016(2)
C14_4 C 0.7493(3) 0.87250(12) 0.3424(2)
N1_4 N 0.4446(2) 0.94511(10) 0.27588(17)
C15_4 C 0.3453(4) 0.90325(15) 0.2515(2)
H9_4 H 0.334894 0.873843 0.295900
C16_4 C 0.2578(4) 0.90153(16) 0.1639(2)
H10_4 H 0.192412 0.871072 0.150229
C17_4 C 0.2681(3) 0.94623(14) 0.0951(2)
C18_4 C 0.3715(3) 0.98970(14) 0.1215(2)
C19_4 C 0.4557(3) 0.98710(13) 0.2095(2)
C20_4 C 0.1734(3) 0.94712(14) 0.0016(2)
H13_4 H 0.004505 0.902535 0.042691
N3_2 N 0.7279(2) 0.94368(10) 0.54416(17)
C22_4 C 0.9482(3) 0.92164(15) 0.9024(2)
H14_4 H 0.857739 0.904212 0.897229
C23_4 C 0.9943(3) 0.94859(13) 0.8210(2)
C26_4 C 0.8375(3) 0.98210(13) 0.5633(2)
C27_4 C 0.9256(3) 0.98573(13) 0.6508(2)
C28_4 C 0.9034(3) 0.94712(13) 0.7260(2)
C29_4 C 0.7909(3) 0.90598(14) 0.7049(2)
H19_4 H 0.772016 0.878995 0.751301
C30_4 C 0.7089(3) 0.90578(13) 0.6156(2)
H20_4 H 0.636274 0.877939 0.603840
C21_4 C 0.0367(3) 0.92087(16) 0.9903(2)
C24_4 C 0.1304(3) 0.97624(15) 0.8325(2)
H15_4 H 0.161818 0.995262 0.780425
C25_4 C 0.2179(3) 0.97541(15) 0.9205(2)
H16_4 H 0.307311 0.993744 0.926288
H17_4 H 0.855110 0.007794 0.514749
H18_4 H 0.998896 0.013468 0.659819
loop_
_geom_bond_atom_site_label_1
_geom_bond_atom_site_label_2
_geom_bond_site_symmetry_1
_geom_bond_site_symmetry_2
O3 C14 1_555 1_555
O4 C14 1_555 1_555
C9 H6 1_555 1_555
C10 C9 1_555 1_555
H7 C10 1_555 1_555
C12 C1 1_555 1_555
H8 C12 1_555 1_555
C13 C9 1_555 1_555
C14 C13 1_555 1_555
Cu3 O3 1_555 1_555
O4 Cu3 1_555 1_555
C12 C13 1_555 1_555
N2 C26 1_555 1_555
H14 C22 1_555 1_555
C23 C22 1_555 1_555
C27 C26 1_555 1_555
C28 C23 1_555 1_555
C29 C28 1_555 1_555
H19 C29 1_555 1_555
C30 N2 1_555 1_555
H20 C30 1_555 1_555
Cu3 N2 1_555 1_555
C27 C28 1_555 1_555
C29 C30 1_555 1_555
N1 Cu3 1_555 1_555
C15 N1 1_555 1_555
H9 C15 1_555 1_555
C16 C15 1_555 1_555
H10 C16 1_555 1_555
C17 C16 1_555 1_555
C18 C17 1_555 1_555
C19 N1 1_555 1_555
C20 C17 1_555 1_555
O5 Cu3 1_555 1_555
C18 C19 1_555 1_555
O1 C2 1_555 1_555
O5 C2 1_555 1_555
C2 C3 1_555 1_555
C3 C4 1_555 1_555
C4 H2 1_555 1_555
C5 C4 1_555 1_555
H3 C5 1_555 1_555
C6 C5 1_555 1_555
C7 C6 1_555 1_555
H4 C7 1_555 1_555
C8 C3 1_555 1_555
H5 C8 1_555 1_555
C6 C11 1_555 1_555
C7 C8 1_555 1_555
Cu4 O2 1_555 1_555
N3 C26_2 1_555 1_555
H14_2 C22_2 1_555 1_555
C23_2 C22_2 1_555 1_555
C26_2 H17 1_555 1_555
C27_2 C26_2 1_555 1_555
H18 C27_2 1_555 1_555
C28_2 C23_2 1_555 1_555
C29_2 C28_2 1_555 1_555
H19_2 C29_2 1_555 1_555
C30_2 N3 1_555 1_555
H20_2 C30_2 1_555 1_555
C27_2 C28_2 1_555 1_555
C29_2 C30_2 1_555 1_555
Cu4 O1_2 1_555 1_555
O1_2 C2_2 1_555 1_555
N1_2 Cu4 1_555 1_555
C2_2 C3_2 1_555 1_555
C3_2 C4_2 1_555 1_555
C5_2 C4_2 1_555 1_555
H3_2 C5_2 1_555 1_555
C6_2 C5_2 1_555 1_555
C7_2 C6_2 1_555 1_555
H4_2 C7_2 1_555 1_555
C8_2 C3_2 1_555 1_555
H5_2 C8_2 1_555 1_555
C15_2 N1_2 1_555 1_555
H9_2 C15_2 1_555 1_555
C16_2 C15_2 1_555 1_555
H10_2 C16_2 1_555 1_555
C17_2 C16_2 1_555 1_555
C18_2 C17_2 1_555 1_555
H11_2 C18_2 1_555 1_555
C19_2 N1_2 1_555 1_555
H12_2 C19_2 1_555 1_555
C20_2 C17_2 1_555 1_555
C21 C20_2 1_555 1_555
H13_2 C21 1_555 1_555
H15 C24 1_555 1_555
C25 C20_2 1_555 1_555
H16 C25 1_555 1_555
O6 Cu4 1_555 1_555
O7 Cu4 1_555 1_555
C6_2 C11_2 1_555 1_555
C7_2 C8_2 1_555 1_555
C18_2 C19_2 1_555 1_555
C24 C25 1_555 1_555
O6 C14_2 1_555 1_555
O7 C14_2 1_555 1_555
C9_2 H6_2 1_555 1_555
C10_2 C9_2 1_555 1_555
H7_2 C10_2 1_555 1_555
C12_2 C1_2 1_555 1_555
H8_2 C12_2 1_555 1_555
C13_2 C9_2 1_555 1_555
C14_2 C13_2 1_555 1_555
C12_2 C13_2 1_555 1_555
Cu1 O1_3 1_555 1_555
O1_3 C2_3 1_555 1_555
N1_3 Cu1 1_555 1_555
C2_3 C3_3 1_555 1_555
C3_3 C4_3 1_555 1_555
C5_3 C4_3 1_555 1_555
H3_3 C5_3 1_555 1_555
C6_3 C5_3 1_555 1_555
C7_3 C6_3 1_555 1_555
H4_3 C7_3 1_555 1_555
C8_3 C3_3 1_555 1_555
H5_3 C8_3 1_555 1_555
C15_3 N1_3 1_555 1_555
H9_3 C15_3 1_555 1_555
C16_3 C15_3 1_555 1_555
H10_3 C16_3 1_555 1_555
C17_3 C16_3 1_555 1_555
C18_3 C17_3 1_555 1_555
H11_3 C18_3 1_555 1_555
C19_3 N1_3 1_555 1_555
H12_3 C19_3 1_555 1_555
C20_3 C17_3 1_555 1_555
C21_2 C20_3 1_555 1_555
H13_3 C21_2 1_555 1_555
H15_2 C24_2 1_555 1_555
C25_2 C20_3 1_555 1_555
H16_2 C25_2 1_555 1_555
O5_2 Cu1 1_555 1_555
O6_2 Cu1 1_555 1_555
O7_2 Cu1 1_555 1_555
C6_3 C11_3 1_555 1_555
C7_3 C8_3 1_555 1_555
C18_3 C19_3 1_555 1_555
C24_2 C25_2 1_555 1_555
O6_2 C14_3 1_555 1_555
O7_2 C14_3 1_555 1_555
C9_3 H6_3 1_555 1_555
C10_3 C9_3 1_555 1_555
H7_3 C10_3 1_555 1_555
C12_3 C1_3 1_555 1_555
H8_3 C12_3 1_555 1_555
C13_3 C9_3 1_555 1_555
C14_3 C13_3 1_555 1_555
C12_3 C13_3 1_555 1_555
N2_2 C26_3 1_555 1_555
H14_3 C22_3 1_555 1_555
C23_3 C22_3 1_555 1_555
C26_3 H17_2 1_555 1_555
C27_3 C26_3 1_555 1_555
H18_2 C27_3 1_555 1_555
C28_3 C23_3 1_555 1_555
C29_3 C28_3 1_555 1_555
H19_3 C29_3 1_555 1_555
C30_3 N2_2 1_555 1_555
H20_3 C30_3 1_555 1_555
C27_3 C28_3 1_555 1_555
C29_3 C30_3 1_555 1_555
H15_3 C24_3 1_555 1_555
H16_3 C25_3 1_555 1_555
C24_3 C25_3 1_555 1_555
O1_4 C2_4 1_555 1_555
O2_2 C2_4 1_555 1_555
C2_4 C3_4 1_555 1_555
C3_4 C4_4 1_555 1_555
C4_4 H2_4 1_555 1_555
C5_4 C4_4 1_555 1_555
H3_4 C5_4 1_555 1_555
C6_4 C5_4 1_555 1_555
C7_4 C6_4 1_555 1_555
H4_4 C7_4 1_555 1_555
C8_4 C3_4 1_555 1_555
H5_4 C8_4 1_555 1_555
Cu4_2 O2_2 1_555 1_555
C6_4 C11_4 1_555 1_555
C7_4 C8_4 1_555 1_555
O3_2 C14_4 1_555 1_555
O4_2 C14_4 1_555 1_555
C9_4 H6_4 1_555 1_555
C10_4 C9_4 1_555 1_555
H7_4 C10_4 1_555 1_555
C12_4 C1_4 1_555 1_555
H8_4 C12_4 1_555 1_555
C13_4 C9_4 1_555 1_555
C14_4 C13_4 1_555 1_555
Cu4_2 O3_2 1_555 1_555
O4_2 Cu4_2 1_555 1_555
C12_4 C13_4 1_555 1_555
N1_4 Cu4_2 1_555 1_555
C15_4 N1_4 1_555 1_555
H9_4 C15_4 1_555 1_555
C16_4 C15_4 1_555 1_555
H10_4 C16_4 1_555 1_555
C17_4 C16_4 1_555 1_555
C18_4 C17_4 1_555 1_555
C19_4 N1_4 1_555 1_555
C20_4 C17_4 1_555 1_555
N3_2 Cu4_2 1_555 1_555
C18_4 C19_4 1_555 1_555
N3_2 C26_4 1_555 1_555
H14_4 C22_4 1_555 1_555
C23_4 C22_4 1_555 1_555
C27_4 C26_4 1_555 1_555
C28_4 C23_4 1_555 1_555
C29_4 C28_4 1_555 1_555
H19_4 C29_4 1_555 1_555
C30_4 N3_2 1_555 1_555
H20_4 C30_4 1_555 1_555
C27_4 C28_4 1_555 1_555
C29_4 C30_4 1_555 1_555
H15_4 C24_4 1_555 1_555
H16_4 C25_4 1_555 1_555
C24_4 C25_4 1_555 1_555

#END
