
###############################################################################
#
# This file contains modified crystal structure data generated from the
# MOF subset of the Cambridge Structural Database (CSD) v542 
# hosted by the Cambridge Crystallographic Data Centre (CCDC).
#
# This work is licensed under the Creative Commons
# Attribution-NonCommercial-ShareAlike 4.0 International License.
# To view a copy of this license, visit
# http://creativecommons.org/licenses/by-nc-sa/4.0/
# or send a letter to
# Creative Commons, PO Box 1866, Mountain View, CA 94042, USA.
#
# CIF created using the CSD Python API on 22 February 2021
# The structure has been converted into the P1 space group
# The structure has a 3D framework
# The original CSD entry CUJKEA is in the orthorhombic crystal system
# The framework has been calculated to contain at least 10.0% void space
# The void calculation uses a probe of radius 1.32A, grid spacing 0.4
#
###############################################################################

data_CUJKEA
_chemical_formula_moiety         '(C56 H56 Co4 N24 O14 S4)n'
_symmetry_cell_setting           triclinic
_symmetry_space_group_name_H-M   'P 1'
_symmetry_Int_Tables_number      1
_space_group_name_Hall           'P 1'
loop_
_symmetry_equiv_pos_site_id
_symmetry_equiv_pos_as_xyz
1 x,y,z
_cell_length_a                   15.946(2)
_cell_length_b                   15.962(3)
_cell_length_c                   9.1140(10)
_cell_angle_alpha                90
_cell_angle_beta                 90
_cell_angle_gamma                90
_cell_volume                     2319.79
loop_
_atom_site_label
_atom_site_type_symbol
_atom_site_fract_x
_atom_site_fract_y
_atom_site_fract_z
H8 H 0.564421 0.553181 0.037789
C11 C 0.4195(4) 0.5961(4) 0.3253(6)
H9 H 0.364227 0.601375 0.294205
C12 C 0.5348(4) 0.6185(4) 0.4357(7)
H10 H 0.575807 0.641171 0.496384
N4 N 0.5444(4) 0.5480(3) 0.3479(6)
C13 C 0.4507(6) 0.4650(4) 0.1835(8)
H11 H 0.489079 0.419216 0.202965
H12 H 0.394180 0.445403 0.202568
C14 C 0.4582(6) 0.4912(7) 0.0232(8)
H13 H 0.424037 0.540713 0.007601
N5 N 0.4573(3) 0.6485(3) 0.4191(5)
N6 N 0.4703(3) 0.5364(3) 0.2830(5)
Co3 Co 0.41311(6) 0.750000 0.51438(9)
S1 S 0.12378(12) 0.750000 0.63365(19)
C2 C 0.0243(5) 0.750000 0.5704(8)
C3 C 0.0210(6) 0.750000 0.4207(9)
C4 C 0.1012(5) 0.750000 0.3575(9)
H2 H 0.111414 0.750000 0.257048
C5 C 0.1608(5) 0.750000 0.4601(8)
C6 C 0.2516(5) 0.750000 0.4362(8)
O3 O 0.2805(4) 0.750000 0.3126(7)
O4 O 0.2957(4) 0.750000 0.5487(7)
Co1 Co 0.91311(6) 0.750000 0.98562(9)
C1 C 0.9558(5) 0.750000 0.6774(9)
H1 H 0.971470 0.750000 0.366991
O1 O 0.9795(4) 0.750000 0.8081(6)
O2 O 0.8856(4) 0.750000 0.6370(9)
O5 O 0.7957(4) 0.750000 0.9513(7)
S1_2 S 0.62378(12) 0.750000 0.86635(19)
C1_2 C 0.4558(5) 0.750000 0.8226(9)
C2_2 C 0.5243(5) 0.750000 0.9296(8)
C7 C 0.4195(4) 0.9039(4) 0.3253(6)
H3 H 0.364227 0.898625 0.294205
C8 C 0.5348(4) 0.8815(4) 0.4357(7)
H4 H 0.575807 0.858829 0.496384
N1 N 0.5444(4) 0.9520(3) 0.3479(6)
H7 H 0.424037 0.959287 0.007601
N2 N 0.4573(3) 0.8515(3) 0.4191(5)
N3 N 0.4703(3) 0.9636(3) 0.2830(5)
O1_2 O 0.4795(4) 0.750000 0.6919(6)
O2_2 O 0.3856(4) 0.750000 0.8630(9)
H14 H 0.564421 0.946819 0.037789
Co1_2 Co 0.58689(6) 0.250000 0.48562(9)
S1_3 S 0.37622(12) 0.250000 0.13365(19)
C1_3 C 0.5442(5) 0.250000 0.1774(9)
C2_3 C 0.4757(5) 0.250000 0.0704(8)
C7_2 C 0.5805(4) 0.4039(4) 0.6747(6)
H3_2 H 0.635773 0.398625 0.705795
C8_2 C 0.4652(4) 0.3815(4) 0.5643(7)
H4_2 H 0.424193 0.358829 0.503616
N1_2 N 0.4556(4) 0.4520(3) 0.6521(6)
C9 C 0.5493(6) 0.5350(4) 0.8165(8)
H5 H 0.510921 0.580784 0.797035
H6 H 0.605820 0.554597 0.797432
C10 C 0.5418(6) 0.5088(7) 0.9768(8)
H7_2 H 0.575963 0.459287 0.992399
N2_2 N 0.5427(3) 0.3515(3) 0.5809(5)
N3_2 N 0.5297(3) 0.4636(3) 0.7170(5)
O1_3 O 0.5205(4) 0.250000 0.3081(6)
O2_3 O 0.6144(4) 0.250000 0.1370(9)
O4_2 O 0.2043(4) 0.250000 0.0487(7)
H14_2 H 0.435579 0.446819 0.962211
Co2 Co 0.08689(6) 0.250000 0.01438(9)
N7 N 0.5427(3) 0.1485(3) 0.5809(5)
O5_2 O 0.7043(4) 0.250000 0.4513(7)
C1_4 C 0.0442(5) 0.250000 0.3226(9)
H1_2 H 0.028530 0.250000 0.633009
O1_4 O 0.0205(4) 0.250000 0.1919(6)
O2_4 O 0.1144(4) 0.250000 0.3630(9)
S1_4 S 0.87622(12) 0.250000 0.36635(19)
C2_4 C 0.9757(5) 0.250000 0.4296(8)
C3_2 C 0.9790(6) 0.250000 0.5793(9)
C4_2 C 0.8988(5) 0.250000 0.6425(9)
H2_2 H 0.888586 0.250000 0.742952
C5_2 C 0.8392(5) 0.250000 0.5399(8)
C6_2 C 0.7484(5) 0.250000 0.5638(8)
O3_2 O 0.7195(4) 0.250000 0.6874(7)
H8_2 H 0.435579 0.053181 0.962211
C11_2 C 0.5805(4) 0.0961(4) 0.6747(6)
H9_2 H 0.635773 0.101375 0.705795
C12_2 C 0.4652(4) 0.1185(4) 0.5643(7)
H10_2 H 0.424193 0.141171 0.503616
N4_2 N 0.4556(4) 0.0480(3) 0.6521(6)
H13_2 H 0.575963 0.040713 0.992399
N6_2 N 0.5297(3) 0.0364(3) 0.7170(5)
C3_3 C 0.4790(6) 0.250000 0.9207(9)
H1_3 H 0.528530 0.250000 0.866991
C4_3 C 0.3988(5) 0.250000 0.8575(9)
H2_3 H 0.388586 0.250000 0.757048
C5_3 C 0.3392(5) 0.250000 0.9601(8)
C6_3 C 0.2484(5) 0.250000 0.9362(8)
O3_3 O 0.2195(4) 0.250000 0.8126(7)
C8_3 C 0.0348(4) 0.6185(4) 0.0643(7)
H4_3 H 0.075807 0.641171 0.003616
N1_3 N 0.0444(4) 0.5480(3) 0.1521(6)
C11_3 C 0.0805(4) 0.4039(4) 0.8253(6)
H9_3 H 0.135773 0.398625 0.794205
C13_2 C 0.0493(6) 0.5350(4) 0.6835(8)
H11_2 H 0.010921 0.580784 0.702965
H12_2 H 0.105820 0.554597 0.702568
C14_2 C 0.0418(6) 0.5088(7) 0.5232(8)
H13_3 H 0.075963 0.459287 0.507601
H14_3 H 0.064421 0.553181 0.462211
N5_2 N 0.0427(3) 0.3515(3) 0.9191(5)
N6_3 N 0.0297(3) 0.4636(3) 0.7830(5)
C7_3 C 0.0805(4) 0.0961(4) 0.8253(6)
H3_3 H 0.135773 0.101375 0.794205
H7_3 H 0.075963 0.040713 0.507601
N2_3 N 0.0427(3) 0.1485(3) 0.9191(5)
N3_3 N 0.0297(3) 0.0364(3) 0.7830(5)
C7_4 C 0.9195(4) 0.5961(4) 0.1747(6)
H3_4 H 0.864227 0.601375 0.205795
C9_2 C 0.9507(6) 0.4650(4) 0.3165(8)
H5_2 H 0.989079 0.419216 0.297035
H6_2 H 0.894180 0.445403 0.297432
C10_2 C 0.9582(6) 0.4912(7) 0.4768(8)
H7_4 H 0.924037 0.540713 0.492399
H8_3 H 0.935579 0.446819 0.537789
N2_4 N 0.9573(3) 0.6485(3) 0.0809(5)
N3_4 N 0.9703(3) 0.5364(3) 0.2170(5)
C12_3 C 0.9652(4) 0.3815(4) 0.9357(7)
H10_3 H 0.924193 0.358829 0.996384
N4_3 N 0.9556(4) 0.4520(3) 0.8479(6)
N7_2 N 0.9573(3) 0.8515(3) 0.0809(5)
C11_4 C 0.9195(4) 0.9039(4) 0.1747(6)
H9_4 H 0.864227 0.898625 0.205795
H13_4 H 0.924037 0.959287 0.492399
N6_4 N 0.9703(3) 0.9636(3) 0.2170(5)
C9_3 C 0.0493(6) 0.9650(4) 0.6835(8)
H5_3 H 0.010921 0.919216 0.702965
H6_3 H 0.105820 0.945403 0.702568
C10_3 C 0.0418(6) 0.9912(7) 0.5232(8)
H8_4 H 0.064421 0.946819 0.462211
C12_4 C 0.0348(4) 0.8815(4) 0.0643(7)
H10_4 H 0.075807 0.858829 0.003616
N4_4 N 0.0444(4) 0.9520(3) 0.1521(6)
C8_4 C 0.9652(4) 0.1185(4) 0.9357(7)
H4_4 H 0.924193 0.141171 0.996384
N1_4 N 0.9556(4) 0.0480(3) 0.8479(6)
C13_3 C 0.9507(6) 0.0350(4) 0.3165(8)
H11_3 H 0.989079 0.080784 0.297035
H12_3 H 0.894180 0.054597 0.297432
C14_3 C 0.9582(6) 0.0088(7) 0.4768(8)
H14_4 H 0.935579 0.053181 0.537789
C9_4 C 0.4507(6) 0.0350(4) 0.1835(8)
H5_4 H 0.489079 0.080784 0.202965
H6_4 H 0.394180 0.054597 0.202568
C10_4 C 0.4582(6) 0.0088(7) 0.0232(8)
C3_4 C 0.5210(6) 0.750000 0.0793(9)
H1_4 H 0.471470 0.750000 0.133009
C4_4 C 0.6012(5) 0.750000 0.1425(9)
H2_4 H 0.611414 0.750000 0.242952
C5_4 C 0.6608(5) 0.750000 0.0399(8)
C6_4 C 0.7516(5) 0.750000 0.0638(8)
O3_4 O 0.7805(4) 0.750000 0.1874(7)
C13_4 C 0.5493(6) 0.9650(4) 0.8165(8)
H11_4 H 0.510921 0.919216 0.797035
H12_4 H 0.605820 0.945403 0.797432
C14_4 C 0.5418(6) 0.9912(7) 0.9768(8)
loop_
_geom_bond_atom_site_label_1
_geom_bond_atom_site_label_2
_geom_bond_site_symmetry_1
_geom_bond_site_symmetry_2
C11 H9 1_555 1_555
C12 H10 1_555 1_555
N4 C12 1_555 1_555
C13 H11 1_555 1_555
H12 C13 1_555 1_555
H13 C14 1_555 1_555
N5 C11 1_555 1_555
N6 C11 1_555 1_555
Co3 N5 1_555 1_555
C12 N5 1_555 1_555
N4 N6 1_555 1_555
C13 C14 1_555 1_555
C13 N6 1_555 1_555
S1 C2 1_555 1_555
C2 C3 1_555 1_555
C4 C3 1_555 1_555
H2 C4 1_555 1_555
C5 S1 1_555 1_555
C6 C5 1_555 1_555
O3 C6 1_555 1_555
O4 C6 1_555 1_555
Co3 O4 1_555 1_555
C4 C5 1_555 1_555
O1 Co1 1_555 1_555
O2 C1 1_555 1_555
O5 Co1 1_555 1_555
C1 O1 1_555 1_555
Co3 N2 1_555 1_555
S1_2 C2_2 1_555 1_555
C1_2 C2_2 1_555 1_555
C7 H3 1_555 1_555
C8 H4 1_555 1_555
N1 C8 1_555 1_555
N2 C7 1_555 1_555
N3 C7 1_555 1_555
O1_2 Co3 1_555 1_555
O2_2 C1_2 1_555 1_555
C1_2 O1_2 1_555 1_555
C8 N2 1_555 1_555
N1 N3 1_555 1_555
Co1_2 N2_2 1_555 1_555
S1_3 C2_3 1_555 1_555
C1_3 C2_3 1_555 1_555
C7_2 H3_2 1_555 1_555
C8_2 H4_2 1_555 1_555
N1_2 C8_2 1_555 1_555
C9 H5 1_555 1_555
H6 C9 1_555 1_555
C10 C9 1_555 1_555
H7_2 C10 1_555 1_555
N2_2 C7_2 1_555 1_555
N3_2 C7_2 1_555 1_555
O1_3 Co1_2 1_555 1_555
O2_3 C1_3 1_555 1_555
Co2 O4_2 1_555 1_555
N7 Co1_2 1_555 1_555
O5_2 Co1_2 1_555 1_555
C1_3 O1_3 1_555 1_555
C8_2 N2_2 1_555 1_555
N1_2 N3_2 1_555 1_555
C9 N3_2 1_555 1_555
O1_4 Co2 1_555 1_555
O2_4 C1_4 1_555 1_555
C1_4 O1_4 1_555 1_555
S1_4 C2_4 1_555 1_555
C2_4 C3_2 1_555 1_555
C4_2 C3_2 1_555 1_555
H2_2 C4_2 1_555 1_555
C5_2 S1_4 1_555 1_555
C6_2 C5_2 1_555 1_555
O3_2 C6_2 1_555 1_555
O5_2 C6_2 1_555 1_555
C4_2 C5_2 1_555 1_555
C11_2 H9_2 1_555 1_555
C12_2 H10_2 1_555 1_555
N4_2 C12_2 1_555 1_555
N7 C11_2 1_555 1_555
N6_2 C11_2 1_555 1_555
C12_2 N7 1_555 1_555
N4_2 N6_2 1_555 1_555
C3_3 H1_3 1_555 1_555
C4_3 C3_3 1_555 1_555
H2_3 C4_3 1_555 1_555
C6_3 C5_3 1_555 1_555
O3_3 C6_3 1_555 1_555
C4_3 C5_3 1_555 1_555
C8_3 H4_3 1_555 1_555
N1_3 C8_3 1_555 1_555
C11_3 H9_3 1_555 1_555
C13_2 H11_2 1_555 1_555
H12_2 C13_2 1_555 1_555
H13_3 C14_2 1_555 1_555
H14_3 C14_2 1_555 1_555
N5_2 C11_3 1_555 1_555
N6_3 C11_3 1_555 1_555
C13_2 C14_2 1_555 1_555
C13_2 N6_3 1_555 1_555
C7_3 H3_3 1_555 1_555
N2_3 C7_3 1_555 1_555
N3_3 C7_3 1_555 1_555
C7_4 H3_4 1_555 1_555
C9_2 H5_2 1_555 1_555
H6_2 C9_2 1_555 1_555
C10_2 C9_2 1_555 1_555
H7_4 C10_2 1_555 1_555
H8_3 C10_2 1_555 1_555
N2_4 C7_4 1_555 1_555
N3_4 C7_4 1_555 1_555
C12_3 H10_3 1_555 1_555
N4_3 C12_3 1_555 1_555
C9_2 N3_4 1_555 1_555
C11_4 H9_4 1_555 1_555
N7_2 C11_4 1_555 1_555
N6_4 C11_4 1_555 1_555
C9_3 H5_3 1_555 1_555
H6_3 C9_3 1_555 1_555
C10_3 C9_3 1_555 1_555
H8_4 C10_3 1_555 1_555
C12_4 H10_4 1_555 1_555
N4_4 C12_4 1_555 1_555
C8_4 H4_4 1_555 1_555
N1_4 C8_4 1_555 1_555
C13_3 H11_3 1_555 1_555
H12_3 C13_3 1_555 1_555
H14_4 C14_3 1_555 1_555
C13_3 C14_3 1_555 1_555
C9_4 H5_4 1_555 1_555
H6_4 C9_4 1_555 1_555
C10_4 C9_4 1_555 1_555
C3_4 H1_4 1_555 1_555
C4_4 C3_4 1_555 1_555
H2_4 C4_4 1_555 1_555
C6_4 C5_4 1_555 1_555
O3_4 C6_4 1_555 1_555
C4_4 C5_4 1_555 1_555
C13_4 H11_4 1_555 1_555
H12_4 C13_4 1_555 1_555
C13_4 C14_4 1_555 1_555

#END
