
###############################################################################
#
# This file contains modified crystal structure data generated from the
# MOF subset of the Cambridge Structural Database (CSD) v542 
# hosted by the Cambridge Crystallographic Data Centre (CCDC).
#
# This work is licensed under the Creative Commons
# Attribution-NonCommercial-ShareAlike 4.0 International License.
# To view a copy of this license, visit
# http://creativecommons.org/licenses/by-nc-sa/4.0/
# or send a letter to
# Creative Commons, PO Box 1866, Mountain View, CA 94042, USA.
#
# CIF created using the CSD Python API on 22 February 2021
# The structure has been converted into the P1 space group
# The structure has a 3D framework
# The original CSD entry CURYIA is in the monoclinic crystal system
# The framework has been calculated to contain at least 10.0% void space
# The void calculation uses a probe of radius 1.32A, grid spacing 0.4
# The framework is charged, counterions have been retained in the structure
#
###############################################################################

data_CURYIA
_chemical_formula_moiety         '(C60 H32 Eu4 N4 O32)n'
_symmetry_cell_setting           triclinic
_symmetry_space_group_name_H-M   'P 1'
_symmetry_Int_Tables_number      1
_space_group_name_Hall           'P 1'
loop_
_symmetry_equiv_pos_site_id
_symmetry_equiv_pos_as_xyz
1 x,y,z
_cell_length_a                   11.1624(2)
_cell_length_b                   13.9637(4)
_cell_length_c                   11.1458(3)
_cell_angle_alpha                90
_cell_angle_beta                 95.42
_cell_angle_gamma                90
_cell_volume                     1729.51
loop_
_atom_site_label
_atom_site_type_symbol
_atom_site_fract_x
_atom_site_fract_y
_atom_site_fract_z
Eu4 Eu 0.10455(3) 0.16872(2) 0.03581(3)
Eu1 Eu 0.10455(3) 0.33128(2) 0.53581(3)
O1 O 0.0268(4) 0.1480(3) 0.8339(4)
O2 O 0.1354(4) 0.4928(3) 0.5381(4)
O3 O 0.1042(4) 0.3148(3) 0.9252(4)
O4 O 0.0505(4) 0.2022(3) 0.6543(4)
O5 O 0.7259(4) 0.6524(4) 0.5797(4)
O6 O 0.1171(4) 0.3705(3) 0.7417(4)
O7 O 0.0943(4) 0.6313(3) 0.4496(4)
O8 O 0.6934(4) 0.6959(4) 0.3949(5)
C1 C 0.0966(6) 0.3073(5) 0.8149(6)
C2 C 0.1638(6) 0.5672(5) 0.4895(5)
C3 C 0.3665(6) 0.5856(5) 0.5910(6)
H1 H 0.336366 0.565261 0.661713
C4 C 0.0544(5) 0.2109(5) 0.7630(6)
C5 C 0.2932(5) 0.5886(5) 0.4866(6)
C6 C 0.6560(6) 0.6667(5) 0.4887(6)
C7 C 0.4546(6) 0.6452(5) 0.3847(6)
H2 H 0.484843 0.666265 0.314431
C8 C 0.2675(6) 0.6092(5) 0.2635(6)
C9 C 0.5289(6) 0.6415(5) 0.4900(6)
N1 N 0.1689(5) 0.5856(5) 0.0377(5)
C10 C 0.4840(6) 0.6121(5) 0.5924(6)
H4 H 0.533723 0.610005 0.664237
C11 C 0.3368(6) 0.6182(5) 0.3821(6)
C12 C 0.2146(6) 0.5246(5) 0.2270(6)
H5 H 0.211677 0.474260 0.281221
C13 C 0.2142(8) 0.6700(6) 0.0716(7)
H6 H 0.211149 0.720551 0.017046
C14 C 0.1673(7) 0.5143(6) 0.1134(6)
H7 H 0.132965 0.456221 0.087985
C15 C 0.2644(8) 0.6825(6) 0.1843(7)
H8 H 0.297006 0.741533 0.208048
Eu3 Eu 0.89545(3) 0.66872(2) 0.46419(3)
O9 O 0.0268(4) 0.3520(3) 0.3339(4)
O10 O 0.1042(4) 0.1852(3) 0.4252(4)
O11 O 0.2741(4) 0.3476(4) 0.4203(4)
O13 O 0.3066(4) 0.3041(4) 0.6051(5)
O12 O 0.9057(4) 0.3687(3) 0.5504(4)
O12_2 O 0.0943(4) 0.8687(3) 0.9496(4)
O7_2 O 0.9057(4) 0.1313(3) 0.0504(4)
O8_2 O 0.3066(4) 0.1959(4) 0.1051(5)
C2_2 C 0.8362(6) 0.0672(5) 0.0105(5)
C5_2 C 0.7068(5) 0.0886(5) 0.0134(6)
C6_2 C 0.3440(6) 0.1667(5) 0.0113(6)
C7_2 C 0.5454(6) 0.1452(5) 0.1153(6)
H2_2 H 0.515157 0.166265 0.185569
C8_2 C 0.7325(6) 0.1092(5) 0.2365(6)
C9_2 C 0.4711(6) 0.1415(5) 0.0100(6)
N1_2 N 0.8311(5) 0.0856(5) 0.4623(5)
H3 H 0.860132 0.077490 0.535797
C11_2 C 0.6632(6) 0.1182(5) 0.1179(6)
C12_2 C 0.7854(6) 0.0246(5) 0.2730(6)
C13_2 C 0.7858(8) 0.1700(6) 0.4284(7)
H6_2 H 0.788851 0.220551 0.482954
C14_2 C 0.8327(7) 0.0143(6) 0.3866(6)
C15_2 C 0.7356(8) 0.1825(6) 0.3157(7)
H8_2 H 0.702994 0.241533 0.291952
O5_2 O 0.2741(4) 0.1524(4) 0.9203(4)
C3_2 C 0.6335(6) 0.0856(5) 0.9090(6)
H1_2 H 0.663634 0.065261 0.838287
C10_2 C 0.5160(6) 0.1121(5) 0.9076(6)
H4_2 H 0.466277 0.110005 0.835763
H5_2 H 0.788323 0.974260 0.218779
H7_2 H 0.867035 0.956221 0.412015
O9_2 O 0.9732(4) 0.8520(3) 0.1661(4)
O10_2 O 0.8958(4) 0.6852(3) 0.0748(4)
O11_2 O 0.7259(4) 0.8476(4) 0.0797(4)
Eu1_2 Eu 0.89545(3) 0.83128(2) 0.96419(3)
O1_2 O 0.9732(4) 0.6480(3) 0.6661(4)
O2_2 O 0.8646(4) 0.9928(3) 0.9619(4)
O3_2 O 0.8958(4) 0.8148(3) 0.5748(4)
O4_2 O 0.9495(4) 0.7022(3) 0.8457(4)
O6_2 O 0.8829(4) 0.8705(3) 0.7583(4)
C1_2 C 0.9034(6) 0.8073(5) 0.6851(6)
C4_2 C 0.9456(5) 0.7109(5) 0.7370(6)
O13_2 O 0.6934(4) 0.8041(4) 0.8949(5)
O2_3 O 0.8646(4) 0.5072(3) 0.4619(4)
O4_3 O 0.9495(4) 0.7978(3) 0.3457(4)
O6_3 O 0.8829(4) 0.6295(3) 0.2583(4)
C1_3 C 0.9034(6) 0.6927(5) 0.1851(6)
C2_3 C 0.8362(6) 0.4328(5) 0.5105(5)
C3_3 C 0.6335(6) 0.4144(5) 0.4090(6)
H1_3 H 0.663634 0.434739 0.338287
C4_3 C 0.9456(5) 0.7891(5) 0.2370(6)
C5_3 C 0.7068(5) 0.4114(5) 0.5134(6)
C6_3 C 0.3440(6) 0.3333(5) 0.5113(6)
C7_3 C 0.5454(6) 0.3548(5) 0.6153(6)
H2_3 H 0.515157 0.333735 0.685569
C8_3 C 0.7325(6) 0.3908(5) 0.7365(6)
C9_3 C 0.4711(6) 0.3585(5) 0.5100(6)
N1_3 N 0.8311(5) 0.4144(5) 0.9623(5)
C10_3 C 0.5160(6) 0.3879(5) 0.4076(6)
H4_3 H 0.466277 0.389995 0.335763
C11_3 C 0.6632(6) 0.3818(5) 0.6179(6)
C12_3 C 0.7854(6) 0.4754(5) 0.7730(6)
H5_3 H 0.788323 0.525740 0.718779
C13_3 C 0.7858(8) 0.3300(6) 0.9284(7)
H6_3 H 0.788851 0.279449 0.982954
C14_3 C 0.8327(7) 0.4857(6) 0.8866(6)
H7_3 H 0.867035 0.543779 0.912015
C15_3 C 0.7356(8) 0.3175(6) 0.8157(7)
H8_3 H 0.702994 0.258467 0.791952
O2_4 O 0.1354(4) 0.0072(3) 0.0381(4)
O4_4 O 0.0505(4) 0.2978(3) 0.1543(4)
O6_4 O 0.1171(4) 0.1295(3) 0.2417(4)
C1_4 C 0.0966(6) 0.1927(5) 0.3149(6)
C4_4 C 0.0544(5) 0.2891(5) 0.2630(6)
H5_4 H 0.211677 0.025740 0.781221
H7_4 H 0.132965 0.043779 0.587985
C3_4 C 0.3665(6) 0.9144(5) 0.0910(6)
H1_4 H 0.336366 0.934739 0.161713
C10_4 C 0.4840(6) 0.8879(5) 0.0924(6)
H4_4 H 0.533723 0.889995 0.164237
C2_4 C 0.1638(6) 0.9328(5) 0.9895(5)
C5_4 C 0.2932(5) 0.9114(5) 0.9866(6)
C6_4 C 0.6560(6) 0.8333(5) 0.9887(6)
C7_4 C 0.4546(6) 0.8548(5) 0.8847(6)
H2_4 H 0.484843 0.833735 0.814431
C8_4 C 0.2675(6) 0.8908(5) 0.7635(6)
C9_4 C 0.5289(6) 0.8585(5) 0.9900(6)
N1_4 N 0.1689(5) 0.9144(5) 0.5377(5)
H3_2 H 0.139868 0.922510 0.464203
C11_4 C 0.3368(6) 0.8818(5) 0.8821(6)
C12_4 C 0.2146(6) 0.9754(5) 0.7270(6)
C13_4 C 0.2142(8) 0.8300(6) 0.5716(7)
H6_4 H 0.211149 0.779449 0.517046
C14_4 C 0.1673(7) 0.9857(6) 0.6134(6)
C15_4 C 0.2644(8) 0.8175(6) 0.6843(7)
H8_4 H 0.297006 0.758467 0.708048
H3_3 H 0.139868 0.577490 0.964203
H3_4 H 0.860132 0.422510 0.035797
loop_
_geom_bond_atom_site_label_1
_geom_bond_atom_site_label_2
_geom_bond_site_symmetry_1
_geom_bond_site_symmetry_2
Eu1 O2 1_555 1_555
O1 C4 1_555 1_555
O2 C2 1_555 1_555
O3 C1 1_555 1_555
O4 Eu1 1_555 1_555
O5 C6 1_555 1_555
O6 Eu1 1_555 1_555
O7 C2 1_555 1_555
O8 C6 1_555 1_555
C1 O6 1_555 1_555
C2 C5 1_555 1_555
C3 H1 1_555 1_555
C4 O4 1_555 1_555
C5 C3 1_555 1_555
C6 C9 1_555 1_555
C7 H2 1_555 1_555
C8 C11 1_555 1_555
C9 C7 1_555 1_555
C10 C3 1_555 1_555
H4 C10 1_555 1_555
C11 C5 1_555 1_555
C12 C8 1_555 1_555
H5 C12 1_555 1_555
C13 N1 1_555 1_555
H6 C13 1_555 1_555
C14 N1 1_555 1_555
H7 C14 1_555 1_555
C15 C8 1_555 1_555
H8 C15 1_555 1_555
Eu3 O5 1_555 1_555
O9 Eu1 1_555 1_555
O10 Eu1 1_555 1_555
O11 Eu1 1_555 1_555
O13 Eu1 1_555 1_555
O8 Eu3 1_555 1_555
C1 C4 1_555 1_555
C7 C11 1_555 1_555
C9 C10 1_555 1_555
C12 C14 1_555 1_555
C13 C15 1_555 1_555
O7_2 C2_2 1_555 1_555
O8_2 C6_2 1_555 1_555
C2_2 C5_2 1_555 1_555
C6_2 C9_2 1_555 1_555
C7_2 H2_2 1_555 1_555
C8_2 C11_2 1_555 1_555
C9_2 C7_2 1_555 1_555
N1_2 H3 1_555 1_555
C11_2 C5_2 1_555 1_555
C12_2 C8_2 1_555 1_555
C13_2 N1_2 1_555 1_555
H6_2 C13_2 1_555 1_555
C14_2 N1_2 1_555 1_555
C15_2 C8_2 1_555 1_555
H8_2 C15_2 1_555 1_555
O8_2 Eu4 1_555 1_555
C7_2 C11_2 1_555 1_555
C12_2 C14_2 1_555 1_555
C13_2 C15_2 1_555 1_555
C3_2 H1_2 1_555 1_555
C10_2 C3_2 1_555 1_555
H4_2 C10_2 1_555 1_555
Eu1_2 O2_2 1_555 1_555
O1_2 C4_2 1_555 1_555
O3_2 C1_2 1_555 1_555
O4_2 Eu1_2 1_555 1_555
O6_2 Eu1_2 1_555 1_555
C1_2 O6_2 1_555 1_555
C4_2 O4_2 1_555 1_555
Eu3 O1_2 1_555 1_555
O13_2 Eu1_2 1_555 1_555
O3_2 Eu3 1_555 1_555
C1_2 C4_2 1_555 1_555
Eu3 O2_3 1_555 1_555
O9_2 C4_3 1_555 1_555
O2_3 C2_3 1_555 1_555
O10_2 C1_3 1_555 1_555
O4_3 Eu3 1_555 1_555
O11 C6_3 1_555 1_555
O6_3 Eu3 1_555 1_555
O12 C2_3 1_555 1_555
O13 C6_3 1_555 1_555
C1_3 O6_3 1_555 1_555
C2_3 C5_3 1_555 1_555
C3_3 H1_3 1_555 1_555
C4_3 O4_3 1_555 1_555
C5_3 C3_3 1_555 1_555
C6_3 C9_3 1_555 1_555
C7_3 H2_3 1_555 1_555
C8_3 C11_3 1_555 1_555
C9_3 C7_3 1_555 1_555
C10_3 C3_3 1_555 1_555
H4_3 C10_3 1_555 1_555
C11_3 C5_3 1_555 1_555
C12_3 C8_3 1_555 1_555
H5_3 C12_3 1_555 1_555
C13_3 N1_3 1_555 1_555
H6_3 C13_3 1_555 1_555
C14_3 N1_3 1_555 1_555
H7_3 C14_3 1_555 1_555
C15_3 C8_3 1_555 1_555
H8_3 C15_3 1_555 1_555
C1_3 C4_3 1_555 1_555
C7_3 C11_3 1_555 1_555
C9_3 C10_3 1_555 1_555
C12_3 C14_3 1_555 1_555
C13_3 C15_3 1_555 1_555
Eu4 O2_4 1_555 1_555
O9 C4_4 1_555 1_555
O10 C1_4 1_555 1_555
O4_4 Eu4 1_555 1_555
O6_4 Eu4 1_555 1_555
C1_4 O6_4 1_555 1_555
C4_4 O4_4 1_555 1_555
C1_4 C4_4 1_555 1_555
C3_4 H1_4 1_555 1_555
C10_4 C3_4 1_555 1_555
H4_4 C10_4 1_555 1_555
O12_2 C2_4 1_555 1_555
O13_2 C6_4 1_555 1_555
C2_4 C5_4 1_555 1_555
C6_4 C9_4 1_555 1_555
C7_4 H2_4 1_555 1_555
C8_4 C11_4 1_555 1_555
C9_4 C7_4 1_555 1_555
N1_4 H3_2 1_555 1_555
C11_4 C5_4 1_555 1_555
C12_4 C8_4 1_555 1_555
C13_4 N1_4 1_555 1_555
H6_4 C13_4 1_555 1_555
C14_4 N1_4 1_555 1_555
C15_4 C8_4 1_555 1_555
H8_4 C15_4 1_555 1_555
C7_4 C11_4 1_555 1_555
C12_4 C14_4 1_555 1_555
C13_4 C15_4 1_555 1_555

#END
