
###############################################################################
#
# This file contains modified crystal structure data generated from the
# MOF subset of the Cambridge Structural Database (CSD) v542 
# hosted by the Cambridge Crystallographic Data Centre (CCDC).
#
# This work is licensed under the Creative Commons
# Attribution-NonCommercial-ShareAlike 4.0 International License.
# To view a copy of this license, visit
# http://creativecommons.org/licenses/by-nc-sa/4.0/
# or send a letter to
# Creative Commons, PO Box 1866, Mountain View, CA 94042, USA.
#
# CIF created using the CSD Python API on 22 February 2021
# The structure has been converted into the P1 space group
# The structure has a 3D framework
# The original CSD entry DEMNOB is in the tetragonal crystal system
# The original CSD entry DEMNOB is in a Sohncke space group
# The framework has been calculated to contain at least 10.0% void space
# The void calculation uses a probe of radius 1.32A, grid spacing 0.4
#
###############################################################################

data_DEMNOB
_chemical_formula_moiety         '(C84 H42 O33 Zn8)n'
_symmetry_cell_setting           triclinic
_symmetry_space_group_name_H-M   'P 1'
_symmetry_Int_Tables_number      1
_space_group_name_Hall           'P 1'
loop_
_symmetry_equiv_pos_site_id
_symmetry_equiv_pos_as_xyz
1 x,y,z
_cell_length_a                   15.3780(5)
_cell_length_b                   15.3780(5)
_cell_length_c                   12.1813(5)
_cell_angle_alpha                90
_cell_angle_beta                 90
_cell_angle_gamma                90
_cell_volume                     2880.67
loop_
_atom_site_label
_atom_site_type_symbol
_atom_site_fract_x
_atom_site_fract_y
_atom_site_fract_z
C1 C 0.000000 0.500000 0.3123(7)
C4 C 0.000000 0.500000 0.5441(8)
H2 H -0.000002 0.499999 0.620491
O5 O 0.2128(3) 0.4047(3) 0.0003(4)
C6 C 0.000000 0.500000 0.1877(7)
C7 C 0.0693(5) 0.4633(5) 0.1281(7)
H4 H 0.116683 0.440576 0.165853
C8 C 0.0684(5) 0.4602(5) 0.0135(6)
O6 O 0.1228(4) 0.3828(4) 0.6385(3)
O7 O 0.0953(3) 0.2872(3) 0.4997(4)
C11 C 0.0367(5) 0.4307(5) 0.3719(7)
H6 H 0.059424 0.383317 0.334147
C12 C 0.0398(5) 0.4316(5) 0.4865(6)
C13 C 0.0898(5) 0.3602(6) 0.5454(5)
Zn5 Zn 0.18957(5) 0.31043(5) 0.750000
Zn8 Zn 0.18957(5) 0.18957(5) 0.500000
Zn9 Zn 0.31043(5) 0.31043(5) 0.000000
O4 O 0.1172(4) 0.3772(4) 0.8615(3)
C9 C 0.000000 0.500000 0.9559(8)
H5 H -0.000001 0.499998 0.879509
C10 C 0.1398(6) 0.4102(5) 0.9546(5)
Zn9_2 Zn 0.31043(5) 0.31043(5) 1.000000
Zn1 Zn 0.81043(5) 0.81043(5) 0.500000
O1 O 0.8772(4) 0.6172(4) 0.6385(3)
O2 O 0.9047(3) 0.7128(3) 0.4997(4)
C1_2 C 1.000000 0.500000 0.3123(7)
C2 C 0.9633(5) 0.5693(5) 0.3719(7)
H1 H 0.940576 0.616683 0.334147
C3 C 0.9602(5) 0.5684(5) 0.4865(6)
C4_2 C 1.000000 0.500000 0.5441(8)
H2_2 H 0.999998 0.499999 0.620491
C5 C 0.9102(5) 0.6398(6) 0.5454(5)
O3 O 0.7367(7) 0.750000 0.625000
C6_2 C 1.000000 0.500000 0.1877(7)
O9 O 0.7872(3) 0.5953(3) 0.0003(4)
C14 C 0.9307(5) 0.5367(5) 0.1281(7)
H7 H 0.883317 0.559424 0.165853
C15 C 0.9316(5) 0.5398(5) 0.0135(6)
Zn6 Zn 0.81043(5) 0.68957(5) 0.750000
Zn7 Zn 0.68957(5) 0.68957(5) 0.000000
O12 O 0.8772(4) 0.8828(4) 0.6115(3)
O13 O 0.8828(4) 0.8772(4) 0.3885(3)
O15 O 0.7128(3) 0.9047(3) 0.5003(4)
O17 O 0.750000 0.7367(7) 0.375000
C9_2 C 1.000000 0.500000 0.9559(8)
H5_2 H 0.999999 0.499998 0.879509
O8 O 0.8828(4) 0.6228(4) 0.8615(3)
C16 C 0.8602(6) 0.5898(5) 0.9546(5)
Zn7_2 Zn 0.68957(5) 0.68957(5) 1.000000
O14 O 0.9047(3) 0.7872(3) 0.7503(4)
O16 O 0.7128(3) 0.5953(3) 0.7497(4)
O18 O 0.750000 0.7633(7) 0.875000
O1_2 O 0.3828(4) 0.3772(4) 0.8885(3)
O2_2 O 0.2872(3) 0.4047(3) 0.7497(4)
C1_3 C 0.500000 0.500000 0.5623(7)
C2_2 C 0.4307(5) 0.4633(5) 0.6219(7)
H1_2 H 0.383317 0.440576 0.584147
C3_2 C 0.4316(5) 0.4602(5) 0.7365(6)
C4_3 C 0.500000 0.500000 0.7941(8)
H2_3 H 0.500001 0.499998 0.870491
C5_2 C 0.3602(6) 0.4102(5) 0.7954(5)
O3_2 O 0.250000 0.2367(7) 0.875000
O4_2 O 0.6228(4) 0.6172(4) 0.1115(3)
O5_2 O 0.5953(3) 0.7128(3) 0.2503(4)
C6_3 C 0.500000 0.500000 0.4377(7)
C7_2 C 0.5367(5) 0.5693(5) 0.3781(7)
H4_2 H 0.559424 0.616683 0.415853
C8_2 C 0.5398(5) 0.5684(5) 0.2635(6)
C9_3 C 0.500000 0.500000 0.2059(8)
H5_3 H 0.500002 0.499999 0.129509
C10_2 C 0.5898(5) 0.6398(6) 0.2046(5)
O6_2 O 0.6172(4) 0.6228(4) 0.8885(3)
C11_2 C 0.5693(5) 0.5367(5) 0.6219(7)
H6_2 H 0.616683 0.559424 0.584147
C12_2 C 0.5684(5) 0.5398(5) 0.7365(6)
C13_2 C 0.6398(6) 0.5898(5) 0.7954(5)
O8_2 O 0.3772(4) 0.3828(4) 0.1115(3)
O9_2 O 0.4047(3) 0.2872(3) 0.2503(4)
C14_2 C 0.4633(5) 0.4307(5) 0.3781(7)
H7_2 H 0.440576 0.383317 0.415853
C15_2 C 0.4602(5) 0.4316(5) 0.2635(6)
C16_2 C 0.4102(5) 0.3602(6) 0.2046(5)
Zn7_3 Zn 0.31043(5) 0.18957(5) 0.250000
Zn9_3 Zn 0.68957(5) 0.81043(5) 0.250000
O15_2 O 0.0953(3) 0.2128(3) 0.7503(4)
O17_2 O 0.2633(7) 0.250000 0.625000
O18_2 O 0.2367(7) 0.250000 0.125000
O16_2 O 0.4047(3) 0.2128(3) 0.9997(4)
O4_3 O 0.1172(4) 0.1228(4) 0.3885(3)
O5_3 O 0.2128(3) 0.0953(3) 0.2497(4)
C6_4 C 0.000000 -0.000000 0.0623(7)
C7_3 C 0.0693(5) 0.0367(5) 0.1219(7)
H4_3 H 0.116683 0.059424 0.084147
C8_3 C 0.0684(5) 0.0398(5) 0.2365(6)
C9_4 C 0.000000 -0.000000 0.2941(8)
H5_4 H -0.000001 0.000002 0.370491
C10_3 C 0.1398(6) 0.0898(5) 0.2954(5)
C1_4 C 0.000000 -0.000000 0.9377(7)
C4_4 C 0.000000 -0.000000 0.7059(8)
H2_4 H -0.000002 0.000001 0.629509
O6_3 O 0.1228(4) 0.1172(4) 0.6115(3)
C11_3 C 0.0367(5) 0.0693(5) 0.8781(7)
H6_3 H 0.059424 0.116683 0.915853
C12_3 C 0.0398(5) 0.0684(5) 0.7635(6)
C13_3 C 0.0898(5) 0.1398(6) 0.7046(5)
C6_5 C 1.000000 1.000000 0.0623(7)
C9_5 C 1.000000 1.000000 0.2941(8)
H5_5 H 0.999999 1.000002 0.370491
O9_3 O 0.7872(3) 0.9047(3) 0.2497(4)
C14_3 C 0.9307(5) 0.9633(5) 0.1219(7)
H7_3 H 0.883317 0.940576 0.084147
C15_3 C 0.9316(5) 0.9602(5) 0.2365(6)
C16_3 C 0.8602(6) 0.9102(5) 0.2954(5)
C1_5 C 1.000000 1.000000 0.9377(7)
C2_3 C 0.9633(5) 0.9307(5) 0.8781(7)
H1_3 H 0.940576 0.883317 0.915853
C3_3 C 0.9602(5) 0.9316(5) 0.7635(6)
C4_5 C 1.000000 1.000000 0.7059(8)
H2_5 H 0.999998 1.000001 0.629509
C5_3 C 0.9102(5) 0.8602(6) 0.7046(5)
C4_6 C 0.500000 -0.000000 0.0441(8)
H2_6 H 0.500002 0.000001 0.120491
O6_4 O 0.3772(4) 0.1172(4) 0.1385(3)
C13_4 C 0.4102(5) 0.1398(6) 0.0454(5)
C1_6 C 0.500000 -0.000000 0.8123(7)
O4_4 O 0.3828(4) 0.1228(4) 0.3615(3)
O5_4 O 0.2872(3) 0.0953(3) 0.5003(4)
C6_6 C 0.500000 -0.000000 0.6877(7)
C7_4 C 0.4307(5) 0.0367(5) 0.6281(7)
H4_4 H 0.383317 0.059424 0.665853
C8_4 C 0.4316(5) 0.0398(5) 0.5135(6)
C9_6 C 0.500000 -0.000000 0.4559(8)
H5_6 H 0.500001 0.000002 0.379509
C10_4 C 0.3602(6) 0.0898(5) 0.4546(5)
C11_4 C 0.4633(5) 0.0693(5) 0.8719(7)
H6_4 H 0.440576 0.116683 0.834147
C12_4 C 0.4602(5) 0.0684(5) 0.9865(6)
O1_3 O 0.6228(4) 0.8828(4) 0.1385(3)
C4_7 C 0.500000 1.000000 0.0441(8)
H2_7 H 0.500002 1.000001 0.120491
C5_4 C 0.5898(5) 0.8602(6) 0.0454(5)
O3_3 O 0.7633(7) 0.750000 0.125000
O2_3 O 0.5953(3) 0.7872(3) 0.9997(4)
C1_7 C 0.500000 1.000000 0.8123(7)
C2_4 C 0.5367(5) 0.9307(5) 0.8719(7)
H1_4 H 0.559424 0.883317 0.834147
C3_4 C 0.5398(5) 0.9316(5) 0.9865(6)
C6_7 C 0.500000 1.000000 0.6877(7)
C9_7 C 0.500000 1.000000 0.4559(8)
H5_7 H 0.500001 1.000002 0.379509
O8_3 O 0.6172(4) 0.8772(4) 0.3615(3)
C14_4 C 0.5693(5) 0.9633(5) 0.6281(7)
H7_4 H 0.616683 0.940576 0.665853
C15_4 C 0.5684(5) 0.9602(5) 0.5135(6)
C16_4 C 0.6398(6) 0.9102(5) 0.4546(5)
O10 O 0.250000 0.2633(7) 0.375000
C6_8 C 0.000000 1.000000 0.0623(7)
C9_8 C 0.000000 1.000000 0.2941(8)
H5_8 H -0.000001 1.000002 0.370491
C1_8 C 0.000000 1.000000 0.9377(7)
C4_8 C 0.000000 1.000000 0.7059(8)
H2_8 H -0.000002 1.000001 0.629509
C6_9 C 1.000000 -0.000000 0.0623(7)
C9_9 C 1.000000 -0.000000 0.2941(8)
H5_9 H 0.999999 0.000002 0.370491
C1_9 C 1.000000 -0.000000 0.9377(7)
C4_9 C 1.000000 -0.000000 0.7059(8)
H2_9 H 0.999998 0.000001 0.629509
loop_
_geom_bond_atom_site_label_1
_geom_bond_atom_site_label_2
_geom_bond_site_symmetry_1
_geom_bond_site_symmetry_2
H2 C4 1_555 1_555
C6 C1 1_555 1_555
C7 C6 1_555 1_555
H4 C7 1_555 1_555
C8 C7 1_555 1_555
O6 C13 1_555 1_555
O7 C13 1_555 1_555
C11 C1 1_555 1_555
H6 C11 1_555 1_555
C12 C4 1_555 1_555
C13 C12 1_555 1_555
Zn5 O6 1_555 1_555
Zn8 O7 1_555 1_555
Zn9 O5 1_555 1_555
C11 C12 1_555 1_555
O4 C10 1_555 1_555
H5 C9 1_555 1_555
Zn5 O4 1_555 1_555
Zn1 O2 1_555 1_555
O1 C5 1_555 1_555
O2 C5 1_555 1_555
C1_2 C2 1_555 1_555
C2 H1 1_555 1_555
C3 C2 1_555 1_555
C4_2 C3 1_555 1_555
H2_2 C4_2 1_555 1_555
C5 C3 1_555 1_555
O3 Zn1 1_555 1_555
C6_2 C1_2 1_555 1_555
C14 C6_2 1_555 1_555
H7 C14 1_555 1_555
Zn6 O1 1_555 1_555
Zn7 O9 1_555 1_555
O12 Zn1 1_555 1_555
O13 Zn1 1_555 1_555
O15 Zn1 1_555 1_555
O17 Zn1 1_555 1_555
O3 Zn6 1_555 1_555
C14 C15 1_555 1_555
H5_2 C9_2 1_555 1_555
O8 C16 1_555 1_555
Zn6 O8 1_555 1_555
O14 Zn6 1_555 1_555
O16 Zn6 1_555 1_555
O18 Zn6 1_555 1_555
Zn7_2 O18 1_555 1_555
Zn5 O2_2 1_555 1_555
O1_2 C5_2 1_555 1_555
O2_2 C5_2 1_555 1_555
C1_3 C2_2 1_555 1_555
C2_2 H1_2 1_555 1_555
C3_2 C2_2 1_555 1_555
C4_3 C3_2 1_555 1_555
H2_3 C4_3 1_555 1_555
C5_2 C3_2 1_555 1_555
O3_2 Zn5 1_555 1_555
O4_2 C10_2 1_555 1_555
O5_2 C10_2 1_555 1_555
C6_3 C1_3 1_555 1_555
C7_2 C6_3 1_555 1_555
H4_2 C7_2 1_555 1_555
C8_2 C7_2 1_555 1_555
C9_3 C8_2 1_555 1_555
H5_3 C9_3 1_555 1_555
C10_2 C8_2 1_555 1_555
O6_2 C13_2 1_555 1_555
O16 C13_2 1_555 1_555
C11_2 C1_3 1_555 1_555
H6_2 C11_2 1_555 1_555
C12_2 C4_3 1_555 1_555
C13_2 C12_2 1_555 1_555
O8_2 C16_2 1_555 1_555
O9_2 C16_2 1_555 1_555
C14_2 C6_3 1_555 1_555
H7_2 C14_2 1_555 1_555
C15_2 C9_3 1_555 1_555
C16_2 C15_2 1_555 1_555
Zn9 O8_2 1_555 1_555
Zn7 O4_2 1_555 1_555
Zn7_2 O6_2 1_555 1_555
Zn9_2 O1_2 1_555 1_555
Zn7_3 O9_2 1_555 1_555
Zn9_3 O5_2 1_555 1_555
O15_2 Zn5 1_555 1_555
O17_2 Zn5 1_555 1_555
O18_2 Zn9 1_555 1_555
O3_2 Zn9_2 1_555 1_555
C11_2 C12_2 1_555 1_555
C14_2 C15_2 1_555 1_555
Zn7_3 O18_2 1_555 1_555
O16_2 Zn9_2 1_555 1_555
O4_3 C10_3 1_555 1_555
O5_3 C10_3 1_555 1_555
C7_3 C6_4 1_555 1_555
H4_3 C7_3 1_555 1_555
C8_3 C7_3 1_555 1_555
C9_4 C8_3 1_555 1_555
H5_4 C9_4 1_555 1_555
C10_3 C8_3 1_555 1_555
Zn8 O4_3 1_555 1_555
Zn7_3 O5_3 1_555 1_555
H2_4 C4_4 1_555 1_555
O6_3 C13_3 1_555 1_555
O15_2 C13_3 1_555 1_555
C11_3 C1_4 1_555 1_555
H6_3 C11_3 1_555 1_555
C12_3 C4_4 1_555 1_555
C13_3 C12_3 1_555 1_555
Zn8 O6_3 1_555 1_555
C11_3 C12_3 1_555 1_555
H5_5 C9_5 1_555 1_555
O13 C16_3 1_555 1_555
O9_3 C16_3 1_555 1_555
C14_3 C6_5 1_555 1_555
H7_3 C14_3 1_555 1_555
C15_3 C9_5 1_555 1_555
C16_3 C15_3 1_555 1_555
Zn9_3 O9_3 1_555 1_555
C14_3 C15_3 1_555 1_555
Zn9_3 O17 1_555 1_555
O12 C5_3 1_555 1_555
O14 C5_3 1_555 1_555
C1_5 C2_3 1_555 1_555
C2_3 H1_3 1_555 1_555
C3_3 C2_3 1_555 1_555
C4_5 C3_3 1_555 1_555
H2_5 C4_5 1_555 1_555
C5_3 C3_3 1_555 1_555
H2_6 C4_6 1_555 1_555
O6_4 C13_4 1_555 1_555
Zn7_3 O6_4 1_555 1_555
O4_4 C10_4 1_555 1_555
O5_4 C10_4 1_555 1_555
C6_6 C1_6 1_555 1_555
C7_4 C6_6 1_555 1_555
H4_4 C7_4 1_555 1_555
C8_4 C7_4 1_555 1_555
C9_6 C8_4 1_555 1_555
H5_6 C9_6 1_555 1_555
C10_4 C8_4 1_555 1_555
C11_4 C1_6 1_555 1_555
H6_4 C11_4 1_555 1_555
Zn7_3 O4_4 1_555 1_555
Zn8 O5_4 1_555 1_555
C11_4 C12_4 1_555 1_555
O1_3 C5_4 1_555 1_555
H2_7 C4_7 1_555 1_555
O3_3 Zn7 1_555 1_555
Zn9_3 O1_3 1_555 1_555
O3_3 Zn9_3 1_555 1_555
Zn7_2 O2_3 1_555 1_555
C1_7 C2_4 1_555 1_555
C2_4 H1_4 1_555 1_555
C3_4 C2_4 1_555 1_555
C6_7 C1_7 1_555 1_555
H5_7 C9_7 1_555 1_555
O8_3 C16_4 1_555 1_555
O15 C16_4 1_555 1_555
C14_4 C6_7 1_555 1_555
H7_4 C14_4 1_555 1_555
C15_4 C9_7 1_555 1_555
C16_4 C15_4 1_555 1_555
Zn9_3 O8_3 1_555 1_555
C14_4 C15_4 1_555 1_555
O10 Zn7_3 1_555 1_555
Zn8 O10 1_555 1_555
O17_2 Zn8 1_555 1_555
H5_8 C9_8 1_555 1_555
H2_8 C4_8 1_555 1_555
H5_9 C9_9 1_555 1_555
H2_9 C4_9 1_555 1_555

#END
