
###############################################################################
#
# This file contains modified crystal structure data generated from the
# MOF subset of the Cambridge Structural Database (CSD) v542 
# hosted by the Cambridge Crystallographic Data Centre (CCDC).
#
# This work is licensed under the Creative Commons
# Attribution-NonCommercial-ShareAlike 4.0 International License.
# To view a copy of this license, visit
# http://creativecommons.org/licenses/by-nc-sa/4.0/
# or send a letter to
# Creative Commons, PO Box 1866, Mountain View, CA 94042, USA.
#
# CIF created using the CSD Python API on 22 February 2021
# The structure has been converted into the P1 space group
# The structure has a 3D framework
# The original CSD entry EFIRIX is in the triclinic crystal system
# The framework has been calculated to contain at least 10.0% void space
# The void calculation uses a probe of radius 1.32A, grid spacing 0.4
# H atom positions have been added when not included in the experimental data
#
###############################################################################

data_EFIRIX
_chemical_formula_moiety         '(C36 H24 Cu18 Mo24 N26 O82 Si2)n'
_symmetry_cell_setting           triclinic
_symmetry_space_group_name_H-M   'P 1'
_symmetry_Int_Tables_number      1
_space_group_name_Hall           'P 1'
loop_
_symmetry_equiv_pos_site_id
_symmetry_equiv_pos_as_xyz
1 x,y,z
_cell_length_a                   13.3122(6)
_cell_length_b                   14.0123(6)
_cell_length_c                   18.629(2)
_cell_angle_alpha                96.742(2)
_cell_angle_beta                 102.628(2)
_cell_angle_gamma                115.317(2)
_cell_volume                     2976.33
loop_
_atom_site_label
_atom_site_type_symbol
_atom_site_fract_x
_atom_site_fract_y
_atom_site_fract_z
Cu18 Cu 0.02339(8) 0.22126(6) 0.89178(4)
O38 O 0.6151(4) 0.1187(4) 0.0188(2)
Cu6 Cu -0.000000 0.000000 0.000000
C29 C 0.1264(5) 0.0269(5) 0.3475(3)
H18 H 0.170349 0.097748 0.344180
H20 H 0.207902 0.045187 0.455696
C33 C 0.0013(6) 0.1659(5) 0.0996(3)
C35 C 0.0073(5) 0.2988(5) 0.0524(3)
H21 H 0.009319 0.364519 0.046641
N24 N 0.0011(4) 0.2624(4) 0.1169(2)
N25 N 0.0144(4) 0.0815(4) 0.2134(2)
N27 N 0.0062(5) 0.1439(4) 0.0306(2)
Cu12 Cu 0.01548(7) 0.17233(6) 0.29614(4)
C3 C 0.0409(5) 0.6083(4) 0.6476(3)
C4 C 0.0937(5) 0.5313(5) 0.7281(3)
C5 C 0.1310(5) 0.5039(5) 0.8001(3)
C6 C 0.0754(5) 0.3984(5) 0.8083(3)
H2 H 0.010894 0.347307 0.768845
C7 C 0.2243(7) 0.5834(6) 0.8577(4)
H3 H 0.260721 0.655386 0.854584
C8 C 0.2023(7) 0.4413(6) 0.9237(4)
H4 H 0.230541 0.420771 0.966114
C9 C 0.0269(5) 0.1559(5) 0.7064(3)
H5 H 0.087594 0.207122 0.747827
C18 C 0.2608(8) 0.5496(6) 0.9208(4)
H10 H 0.324434 0.599336 0.961361
N1 N 0.0690(4) 0.6159(4) 0.7224(2)
N5 N 0.0502(4) 0.5268(4) 0.6107(2)
N6 N 0.0828(4) 0.4754(4) 0.6622(2)
N7 N 0.1090(5) 0.3655(4) 0.8698(2)
N8 N 0.0034(4) 0.1866(4) 0.6417(3)
N9 N 0.0079(4) 0.0754(4) 0.8519(2)
N12 N 0.0163(5) 0.0098(4) 0.8998(2)
O1 O 0.4916(4) 0.0076(3) 0.6109(2)
O2 O 0.4855(3) 0.2774(3) 0.7901(2)
O3 O 0.7493(3) 0.2694(3) 0.9499(2)
O4 O 0.6112(3) 0.1873(3) 0.81198(19)
O5 O 0.1939(5) 0.6180(6) 0.4913(3)
O6 O 0.4089(3) 0.0809(3) 0.72712(19)
O7 O 0.5588(3) 0.2286(3) 0.68768(19)
O8 O 0.5299(4) 0.4148(4) 0.9160(2)
O9 O 0.3178(4) 0.3075(3) 0.8220(2)
O10 O 0.4078(4) 0.3243(3) 0.6460(2)
O11 O 0.4837(4) 0.4662(3) 0.7853(2)
O12 O 0.2605(4) 0.3865(4) 0.6941(3)
O13 O 0.3263(3) 0.1179(3) 0.5853(2)
O17 O 0.7011(3) 0.1132(3) 0.7002(2)
O19 O 0.7356(3) 0.2878(3) 0.6332(2)
O20 O 0.5221(3) 0.1659(3) 0.5418(2)
O22 O 0.4527(3) 0.0261(3) 0.8729(2)
O23 O 0.3159(4) 0.1142(4) 0.8478(2)
O24 O 0.3432(4) 0.2724(4) 0.9642(3)
O25 O 0.6970(4) 0.6053(4) 0.8951(3)
O26 O 0.7243(3) 0.4192(3) 0.8870(2)
O27 O 0.5250(4) 0.2299(3) 0.9370(2)
O28 O 0.6634(3) 0.4624(3) 0.7591(2)
O29 O 0.5935(3) 0.3745(3) 0.6067(2)
O30 O 0.8210(4) 0.5186(4) 0.6803(2)
O31 O 0.7970(3) 0.3706(3) 0.7778(2)
O32 O 0.8239(3) 0.2093(3) 0.8410(2)
O33 O 0.6633(4) 0.0577(3) 0.8866(2)
O36 O 0.2537(3) 0.1772(3) 0.6918(2)
O39 O 0.3807(4) 0.2545(4) 0.4892(2)
O40 O 0.6812(4) 0.0859(4) 0.5483(2)
O41 O 0.9436(3) 0.4265(3) 0.9206(2)
Si1 Si 0.51629(12) 0.19379(12) 0.75431(7)
Cu2 Cu 0.03437(7) 0.68588(6) 0.79933(4)
Cu3 Cu -0.000000 0.500000 0.500000
Cu4 Cu 0.08878(7) 0.33738(6) 0.62522(4)
Mo1 Mo 0.80878(4) 0.33409(4) 0.86919(3)
Mo2 Mo 0.22327(4) 0.04077(4) 0.64363(3)
Mo3 Mo 0.44488(4) 0.23724(4) 0.57057(3)
Mo4 Mo 0.60492(5) 0.15163(5) 0.93526(3)
Mo5 Mo 0.68683(5) 0.05725(4) 0.79281(3)
Mo7 Mo 0.62092(5) 0.46973(4) 0.85571(3)
Mo8 Mo 0.35599(5) 0.34038(4) 0.72562(3)
Mo10 Mo 0.63695(5) 0.13822(5) 0.61242(3)
Mo11 Mo 0.39482(5) 0.26201(5) 0.89142(3)
Mo12 Mo 0.71375(4) 0.40564(4) 0.69164(3)
Cu6_2 Cu -0.000000 0.000000 1.000000
N28 N 0.0100(5) 0.2300(4) 0.9996(3)
N30 N 0.0709(4) 0.3163(4) 0.5108(2)
N31 N 0.0248(5) 0.3731(4) 0.4730(2)
O83 O 0.1893(3) 0.9709(3) 0.7200(2)
O87 O 0.2192(4) 0.8855(4) 0.8471(2)
Cu6_3 Cu -0.000000 1.000000 0.000000
C19 C 0.0042(5) 0.3361(4) 0.4003(3)
C20 C 0.0738(6) 0.2473(5) 0.4583(3)
H13 H 0.100049 0.197225 0.468699
C28 C 0.0363(5) 0.9502(5) 0.2861(3)
C30 C 0.0827(6) 0.8883(5) 0.4159(3)
H19 H 0.100332 0.868500 0.461065
C31 C 0.1488(6) 0.9954(5) 0.4130(3)
C32 C 0.0112(5) 0.9820(4) 0.2155(3)
N16 N 0.0347(4) 0.2567(4) 0.3878(2)
O86 O 0.1761(3) 0.7907(3) 0.1590(2)
C16 C 0.0017(5) 0.9175(5) 0.8592(3)
O14 O 0.2620(3) 0.9212(3) 0.6086(2)
O16 O 0.3238(4) 0.8742(3) 0.7380(2)
O18 O 0.5387(4) 0.9600(3) 0.7380(2)
O21 O 0.3688(4) 0.7884(4) 0.6121(3)
O34 O 0.7545(4) 0.9800(4) 0.7908(3)
O35 O 0.0929(3) 0.9931(3) 0.5819(2)
Mo6 Mo 0.39340(5) 0.91466(4) 0.65388(3)
Mo9 Mo 0.30915(5) 0.97096(5) 0.80585(3)
Cu6_4 Cu -0.000000 1.000000 1.000000
Cu6_5 Cu 1.000000 0.000000 0.000000
C34 C 0.9983(5) 0.0825(5) 0.1408(3)
O54 O 0.7380(3) 0.0788(3) 0.3914(2)
O55 O 0.8107(3) 0.0291(3) 0.2800(2)
O56 O 0.6762(4) 0.1258(3) 0.2620(2)
O58 O 0.4613(4) 0.0400(3) 0.2620(2)
O61 O 0.6312(4) 0.2116(4) 0.3879(3)
O74 O 0.2455(4) 0.0200(4) 0.2092(3)
O75 O 0.9071(3) 0.0069(3) 0.4181(2)
O77 O 0.7808(4) 0.1145(4) 0.1529(2)
Mo18 Mo 0.60660(5) 0.08534(4) 0.34612(3)
Mo21 Mo 0.69085(5) 0.02904(5) 0.19415(3)
Cu14 Cu 0.96563(7) 0.31412(6) 0.20067(4)
C1 C 0.9958(5) 0.6639(4) 0.5997(3)
C2 C 0.9262(6) 0.7527(5) 0.5417(3)
H1 H 0.899951 0.802775 0.531301
C10 C 0.9637(5) 0.0498(5) 0.7139(3)
C12 C 0.9173(6) 0.1117(5) 0.5841(3)
H7 H 0.899668 0.131500 0.538935
C13 C 0.8512(6) 0.0046(5) 0.5870(3)
C14 C 0.9888(5) 0.0180(4) 0.7845(3)
N2 N 0.9653(4) 0.7433(4) 0.6122(2)
N3 N 0.9291(4) 0.6837(4) 0.4892(2)
N4 N 0.9752(5) 0.6269(4) 0.5270(2)
Cu1 Cu 0.98452(7) 0.82767(6) 0.70386(4)
Cu3_2 Cu 1.000000 0.500000 0.500000
Cu6_6 Cu 1.000000 0.000000 1.000000
O82 O 0.8061(5) 0.3820(6) 0.5087(3)
N32 N 0.9498(4) 0.4732(4) 0.3893(2)
N33 N 0.9989(4) 0.7376(4) 0.8831(2)
N35 N 0.9856(4) 0.9185(4) 0.7866(2)
Cu17 Cu 0.91122(7) 0.66262(6) 0.37478(4)
N14 N 0.9900(5) 0.7700(4) 0.0004(3)
Cu6_7 Cu 1.000000 1.000000 0.000000
C21 C 0.9591(5) 0.3917(4) 0.3524(3)
C22 C 0.9063(5) 0.4687(5) 0.2719(3)
C23 C 0.8690(5) 0.4961(5) 0.1999(3)
C24 C 0.9246(5) 0.6016(5) 0.1917(3)
H14 H 0.989106 0.652693 0.231155
C25 C 0.7757(7) 0.4166(6) 0.1423(4)
H15 H 0.739279 0.344614 0.145416
C26 C 0.7977(7) 0.5587(6) 0.0763(4)
H16 H 0.769459 0.579229 0.033886
C27 C 0.9731(5) 0.8441(5) 0.2936(3)
H17 H 0.912406 0.792878 0.252173
C36 C 0.7392(8) 0.4504(6) 0.0792(4)
H22 H 0.675566 0.400664 0.038639
N15 N 0.9310(4) 0.3841(4) 0.2776(2)
N20 N 0.9172(4) 0.5246(4) 0.3378(2)
N21 N 0.8910(5) 0.6345(4) 0.1302(2)
N22 N 0.9966(4) 0.8134(4) 0.3583(3)
N23 N 0.9921(4) 0.9246(4) 0.1481(2)
N26 N 0.9837(5) 0.9902(4) 0.1002(2)
O42 O 0.5084(4) 0.9924(3) 0.3891(2)
O43 O 0.5145(3) 0.7226(3) 0.2099(2)
O44 O 0.2507(3) 0.7306(3) 0.0501(2)
O45 O 0.3888(3) 0.8127(3) 0.18802(19)
O46 O 0.5911(3) 0.9191(3) 0.27288(19)
O47 O 0.4412(3) 0.7714(3) 0.31232(19)
O48 O 0.4701(4) 0.5852(4) 0.0840(2)
O49 O 0.6822(4) 0.6925(3) 0.1780(2)
O50 O 0.5922(4) 0.6757(3) 0.3540(2)
O51 O 0.5163(4) 0.5338(3) 0.2147(2)
O52 O 0.7395(4) 0.6135(4) 0.3059(3)
O53 O 0.6737(3) 0.8821(3) 0.4147(2)
O57 O 0.2989(3) 0.8868(3) 0.2998(2)
O59 O 0.2644(3) 0.7122(3) 0.3668(2)
O60 O 0.4779(3) 0.8341(3) 0.4582(2)
O62 O 0.5473(3) 0.9739(3) 0.1271(2)
O63 O 0.6841(4) 0.8858(4) 0.1522(2)
O64 O 0.6568(4) 0.7276(4) 0.0358(3)
O65 O 0.3030(4) 0.3947(4) 0.1049(3)
O66 O 0.2757(3) 0.5808(3) 0.1130(2)
O67 O 0.4750(4) 0.7701(3) 0.0630(2)
O68 O 0.3366(3) 0.5376(3) 0.2409(2)
O69 O 0.4065(3) 0.6255(3) 0.3933(2)
O70 O 0.1790(4) 0.4814(4) 0.3197(2)
O71 O 0.2030(3) 0.6294(3) 0.2222(2)
O73 O 0.3367(4) 0.9423(3) 0.1134(2)
O76 O 0.7463(3) 0.8228(3) 0.3082(2)
O79 O 0.6193(4) 0.7455(4) 0.5108(2)
O80 O 0.3188(4) 0.9141(4) 0.4517(2)
O81 O 0.0564(3) 0.5735(3) 0.0794(2)
Si2 Si 0.48371(12) 0.80621(12) 0.24569(7)
Cu10 Cu 0.97661(8) 0.77874(6) 0.10822(4)
Mo13 Mo 0.19122(4) 0.66591(4) 0.13081(3)
Mo14 Mo 0.77673(4) 0.95923(4) 0.35637(3)
Mo15 Mo 0.55512(4) 0.76276(4) 0.42943(3)
Mo16 Mo 0.39508(5) 0.84837(5) 0.06474(3)
Mo17 Mo 0.31317(5) 0.94275(4) 0.20719(3)
Mo19 Mo 0.37908(5) 0.53027(4) 0.14429(3)
Mo20 Mo 0.64401(5) 0.65962(4) 0.27438(3)
Mo22 Mo 0.36305(5) 0.86178(5) 0.38758(3)
Mo23 Mo 0.60518(5) 0.73799(5) 0.10858(3)
Mo24 Mo 0.28625(4) 0.59436(4) 0.30836(3)
C11 C 0.8736(5) 0.9731(5) 0.6525(3)
H6 H 0.829651 0.902252 0.655820
H8 H 0.792098 0.954813 0.544304
C15 C 0.9987(6) 0.8341(5) 0.9004(3)
C17 C 0.9927(5) 0.7012(5) 0.9476(3)
H9 H 0.990681 0.635481 0.953359
N13 N 0.9938(5) 0.8561(4) 0.9694(2)
Cu6_8 Cu 1.000000 1.000000 1.000000
O78 O 0.3849(4) 0.8813(4) 0.9812(2)
loop_
_geom_bond_atom_site_label_1
_geom_bond_atom_site_label_2
_geom_bond_site_symmetry_1
_geom_bond_site_symmetry_2
H18 C29 1_555 1_555
C35 H21 1_555 1_555
N24 C33 1_555 1_555
N27 Cu6 1_555 1_555
Cu12 N25 1_555 1_555
C33 N27 1_555 1_555
C35 N24 1_555 1_555
C3 N1 1_555 1_555
C4 C5 1_555 1_555
C5 C6 1_555 1_555
C6 H2 1_555 1_555
C7 C5 1_555 1_555
H3 C7 1_555 1_555
C8 H4 1_555 1_555
C9 H5 1_555 1_555
C18 C7 1_555 1_555
H10 C18 1_555 1_555
N1 C4 1_555 1_555
N5 C3 1_555 1_555
N6 C4 1_555 1_555
N7 C6 1_555 1_555
N8 C9 1_555 1_555
O2 Si1 1_555 1_555
O3 Mo1 1_555 1_555
O4 Si1 1_555 1_555
O5 Cu3 1_555 1_555
O6 Si1 1_555 1_555
O7 Si1 1_555 1_555
O8 Mo7 1_555 1_555
O9 Mo8 1_555 1_555
O10 Mo3 1_555 1_555
O11 Mo7 1_555 1_555
O12 Cu4 1_555 1_555
O13 Mo2 1_555 1_555
O17 Mo5 1_555 1_555
O19 Mo10 1_555 1_555
O20 Mo3 1_555 1_555
O22 Mo4 1_555 1_555
O24 Mo11 1_555 1_555
O25 Mo7 1_555 1_555
O26 Mo1 1_555 1_555
O27 Mo4 1_555 1_555
O28 Mo7 1_555 1_555
O29 Mo3 1_555 1_555
O30 Mo12 1_555 1_555
O31 Mo1 1_555 1_555
O32 Mo1 1_555 1_555
O33 Mo4 1_555 1_555
O36 Mo2 1_555 1_555
O39 Mo3 1_555 1_555
O40 Mo10 1_555 1_555
O41 Mo1 1_555 1_555
Cu2 N1 1_555 1_555
Cu4 N6 1_555 1_555
Cu18 N7 1_555 1_555
Mo1 O4 1_555 1_555
Mo2 O6 1_555 1_555
Mo3 O7 1_555 1_555
Mo4 O3 1_555 1_555
Mo5 O4 1_555 1_555
Mo7 O2 1_555 1_555
Mo8 O2 1_555 1_555
Mo10 O1 1_555 1_555
Mo11 O2 1_555 1_555
Mo12 O7 1_555 1_555
Cu6_2 N12 1_555 1_555
N28 Cu18 1_555 1_555
N30 Cu4 1_555 1_555
N31 Cu3 1_555 1_555
O87 Cu2 1_555 1_555
C8 C18 1_555 1_555
C8 N7 1_555 1_555
N5 N6 1_555 1_555
N5 Cu3 1_555 1_555
N8 Cu4 1_555 1_555
N9 N12 1_555 1_555
N9 Cu18 1_555 1_555
O4 Mo4 1_555 1_555
O7 Mo10 1_555 1_555
O8 Mo11 1_555 1_555
O9 Mo11 1_555 1_555
O10 Mo8 1_555 1_555
O11 Mo8 1_555 1_555
O12 Mo8 1_555 1_555
O13 Mo3 1_555 1_555
O17 Mo10 1_555 1_555
O19 Mo12 1_555 1_555
O20 Mo10 1_555 1_555
O23 Mo11 1_555 1_555
O26 Mo7 1_555 1_555
O27 Mo11 1_555 1_555
O28 Mo12 1_555 1_555
O29 Mo12 1_555 1_555
O31 Mo12 1_555 1_555
O32 Mo5 1_555 1_555
O33 Mo5 1_555 1_555
O36 Mo8 1_555 1_555
N30 N31 1_555 1_555
C20 H13 1_555 1_555
C30 H19 1_555 1_555
C32 C28 1_555 1_555
N16 C19 1_555 1_555
N30 C20 1_555 1_555
N31 C19 1_555 1_555
Cu12 N16 1_555 1_555
C20 N16 1_555 1_555
C30 C31 1_555 1_555
O16 Mo6 1_555 1_555
O21 Mo6 1_555 1_555
O87 Mo9 1_555 1_555
O14 Mo6 1_555 1_555
O83 Mo9 1_555 1_555
O16 Mo9 1_555 1_555
O18 Mo6 1_555 1_555
O56 Mo18 1_555 1_555
O61 Mo18 1_555 1_555
O77 Mo21 1_555 1_555
O54 Mo18 1_555 1_555
O55 Mo21 1_555 1_555
O56 Mo21 1_555 1_555
O58 Mo18 1_555 1_555
O77 Cu14 1_555 1_555
C2 H1 1_555 1_555
C12 H7 1_555 1_555
C14 C10 1_555 1_555
N2 C1 1_555 1_555
N3 C2 1_555 1_555
N4 C1 1_555 1_555
Cu1 N2 1_555 1_555
Cu3_2 N4 1_555 1_555
O82 Cu3_2 1_555 1_555
N32 Cu3_2 1_555 1_555
N35 Cu1 1_555 1_555
Cu17 N3 1_555 1_555
C2 N2 1_555 1_555
C12 C13 1_555 1_555
N3 N4 1_555 1_555
C21 N15 1_555 1_555
C22 C23 1_555 1_555
C23 C24 1_555 1_555
C24 H14 1_555 1_555
C25 C23 1_555 1_555
H15 C25 1_555 1_555
C26 H16 1_555 1_555
C27 H17 1_555 1_555
C36 C25 1_555 1_555
H22 C36 1_555 1_555
N15 C22 1_555 1_555
N32 C21 1_555 1_555
N20 C22 1_555 1_555
N21 C24 1_555 1_555
N22 C27 1_555 1_555
N26 Cu6_7 1_555 1_555
O43 Si2 1_555 1_555
O44 Mo13 1_555 1_555
O45 Si2 1_555 1_555
O46 Si2 1_555 1_555
O47 Si2 1_555 1_555
O48 Mo19 1_555 1_555
O49 Mo20 1_555 1_555
O50 Mo15 1_555 1_555
O51 Mo19 1_555 1_555
O52 Cu17 1_555 1_555
O53 Mo14 1_555 1_555
O57 Mo17 1_555 1_555
O59 Mo22 1_555 1_555
O60 Mo15 1_555 1_555
O62 Mo16 1_555 1_555
O64 Mo23 1_555 1_555
O65 Mo19 1_555 1_555
O66 Mo13 1_555 1_555
O67 Mo16 1_555 1_555
O68 Mo19 1_555 1_555
O69 Mo15 1_555 1_555
O70 Mo24 1_555 1_555
O71 Mo13 1_555 1_555
O86 Mo13 1_555 1_555
O73 Mo16 1_555 1_555
O76 Mo14 1_555 1_555
O79 Mo15 1_555 1_555
O80 Mo22 1_555 1_555
O81 Mo13 1_555 1_555
Cu14 N15 1_555 1_555
Cu17 N20 1_555 1_555
Cu10 N14 1_555 1_555
Mo13 O45 1_555 1_555
Mo14 O46 1_555 1_555
Mo15 O47 1_555 1_555
Mo16 O44 1_555 1_555
Mo17 O45 1_555 1_555
Mo19 O43 1_555 1_555
Mo20 O43 1_555 1_555
Mo22 O42 1_555 1_555
Mo23 O43 1_555 1_555
Mo24 O47 1_555 1_555
C26 C36 1_555 1_555
C26 N21 1_555 1_555
N32 N20 1_555 1_555
N21 Cu10 1_555 1_555
N22 Cu17 1_555 1_555
N23 N26 1_555 1_555
N23 Cu10 1_555 1_555
O45 Mo16 1_555 1_555
O47 Mo22 1_555 1_555
O48 Mo23 1_555 1_555
O49 Mo23 1_555 1_555
O50 Mo20 1_555 1_555
O51 Mo20 1_555 1_555
O52 Mo20 1_555 1_555
O53 Mo15 1_555 1_555
O57 Mo22 1_555 1_555
O59 Mo24 1_555 1_555
O60 Mo22 1_555 1_555
O63 Mo23 1_555 1_555
O66 Mo19 1_555 1_555
O67 Mo23 1_555 1_555
O68 Mo24 1_555 1_555
O69 Mo24 1_555 1_555
O71 Mo24 1_555 1_555
O86 Mo17 1_555 1_555
O73 Mo17 1_555 1_555
O76 Mo20 1_555 1_555
H6 C11 1_555 1_555
C17 H9 1_555 1_555
N33 C15 1_555 1_555
N13 C15 1_555 1_555
C17 N33 1_555 1_555
N13 Cu6_8 1_555 1_555

#END
