
###############################################################################
#
# This file contains modified crystal structure data generated from the
# MOF subset of the Cambridge Structural Database (CSD) v542 
# hosted by the Cambridge Crystallographic Data Centre (CCDC).
#
# This work is licensed under the Creative Commons
# Attribution-NonCommercial-ShareAlike 4.0 International License.
# To view a copy of this license, visit
# http://creativecommons.org/licenses/by-nc-sa/4.0/
# or send a letter to
# Creative Commons, PO Box 1866, Mountain View, CA 94042, USA.
#
# CIF created using the CSD Python API on 22 February 2021
# The structure has been converted into the P1 space group
# The structure has a 3D framework
# The original CSD entry FISQEG is in the monoclinic crystal system
# The original CSD entry FISQEG is in a Sohncke space group
# The framework has been calculated to contain at least 10.0% void space
# The void calculation uses a probe of radius 1.32A, grid spacing 0.4
#
###############################################################################

data_FISQEG
_chemical_formula_moiety         '(C60 H44 Co6 O31)n'
_symmetry_cell_setting           triclinic
_symmetry_space_group_name_H-M   'P 1'
_symmetry_Int_Tables_number      1
_space_group_name_Hall           'P 1'
loop_
_symmetry_equiv_pos_site_id
_symmetry_equiv_pos_as_xyz
1 x,y,z
_cell_length_a                   7.7252(3)
_cell_length_b                   17.5722(5)
_cell_length_c                   13.7367(4)
_cell_angle_alpha                90
_cell_angle_beta                 101.464(3)
_cell_angle_gamma                90
_cell_volume                     1827.54
loop_
_atom_site_label
_atom_site_type_symbol
_atom_site_fract_x
_atom_site_fract_y
_atom_site_fract_z
C9 C 0.0219(8) 0.2175(4) 0.0379(4)
H5 H 0.0658 0.1854 0.0909
C1 C 0.0038(6) 0.2620(3) 0.5944(4)
C2 C 0.0406(6) 0.1875(3) 0.5693(3)
H1 H 0.0649 0.1766 0.5071
C3 C 0.0404(6) 0.1305(3) 0.6379(3)
C4 C 0.0049(6) 0.1474(3) 0.7304(3)
C8 C 0.0358(7) 0.1967(3) 0.9437(4)
H4 H 0.0955 0.1522 0.9339
C14 C 0.0829(6) 0.0485(3) 0.6125(3)
O4 O 0.2407(5) 0.3897(3) 0.3412(3)
O5 O 0.1586(5) 0.0395(2) 0.5413(2)
O7 O 0.0386(5) 0.9982(2) 0.6659(3)
Co5 Co 0.03248(9) 0.88486(4) 0.67403(5)
Co7 Co 0.28283(8) 0.94650(4) 0.50197(5)
Co9 Co 0.55340(10) 0.00231(4) 0.34653(5)
C10 C 0.9438(7) 0.2852(3) 0.0551(4)
C15 C 0.9404(8) 0.3128(4) 0.1599(4)
O9 O 0.9877(9) 0.2699(4) 0.2299(3)
O10 O 0.8984(5) 0.3778(3) 0.1761(3)
Co4 Co 0.96752(9) 0.38486(4) 0.32597(5)
Co2 Co 0.71717(8) 0.44650(4) 0.49803(5)
Co3 Co 0.44660(10) 0.50231(4) 0.65347(5)
H2 H 0.9968 0.1081 0.7745
C5 C 0.9810(6) 0.2227(3) 0.7589(4)
C6 C 0.9819(6) 0.2796(3) 0.6893(3)
H3 H 0.9677 0.3301 0.7065
C7 C 0.9605(6) 0.2420(3) 0.8612(4)
C11 C 0.8677(7) 0.3301(3) 0.9757(4)
H6 H 0.8134 0.3755 0.9875
C12 C 0.8705(6) 0.3090(3) 0.8788(4)
H7 H 0.8138 0.3387 0.8260
C13 C 0.9838(6) 0.3228(3) 0.5177(3)
C17 C 0.6580(7) 0.5393(3) 0.0377(4)
H8 H 0.7263 0.4960 0.0347
C18 C 0.6348(6) 0.5652(3) 0.1283(3)
H9 H 0.6809 0.5372 0.1849
C19 C 0.5435(6) 0.6331(3) 0.1381(3)
C20 C 0.4692(7) 0.6704(3) 0.0522(4)
H10 H 0.4045 0.7145 0.0562
C22 C 0.5172(6) 0.6592(3) 0.2361(3)
C23 C 0.4877(6) 0.6054(3) 0.3068(3)
H12 H 0.4860 0.5539 0.2911
C24 C 0.4608(6) 0.6276(3) 0.4000(3)
C25 C 0.4531(6) 0.7039(3) 0.4218(3)
H13 H 0.4309 0.7188 0.4832
C26 C 0.4780(6) 0.7585(3) 0.3536(3)
C27 C 0.5140(6) 0.7367(3) 0.2614(3)
H14 H 0.5357 0.7736 0.2168
C29 C 0.4447(7) 0.5710(3) 0.4763(4)
C30 C 0.4702(6) 0.8417(3) 0.3806(4)
O1 O 0.9943(6) 0.3050(2) 0.4305(3)
O2 O 0.6806(5) 0.3867(2) 0.3477(3)
O3 O 0.9559(5) 0.3905(2) 0.5425(2)
O6 O 0.1784(6) 0.4932(3) 0.6504(5)
O8 O 0.7381(5) 0.5090(2) 0.6478(3)
O13 O 0.4726(4) 0.4990(2) 0.4587(3)
O14 O 0.4112(6) 0.5918(3) 0.5570(3)
O15 O 0.4022(5) 0.8554(2) 0.4554(3)
O16 O 0.5273(5) 0.8901(2) 0.3288(3)
O17 O 0.8414(5) 0.5395(2) 0.4587(2)
O18 O 0.9614(5) 0.4982(2) 0.3341(3)
O21 O 0.4787(5) 0.5577(3) 0.7811(3)
O22 O 0.5978(5) 0.3554(2) 0.5446(3)
O23 O 0.4727(5) 0.3901(2) 0.6712(3)
C16 C 0.5821(7) 0.5759(3) 0.9507(4)
C21 C 0.4880(7) 0.6437(4) 0.9577(4)
H11 H 0.4387 0.6707 0.9007
C28 C 0.5983(8) 0.5403(4) 0.8511(4)
O12 O 0.7355(6) 0.5015(3) 0.8473(3)
C16_2 C 0.4179(7) 0.0759(3) 0.0493(4)
C21_2 C 0.5120(7) 0.1437(4) 0.0423(4)
H11_2 H 0.5613 0.1707 0.0993
C28_2 C 0.4017(8) 0.0403(4) 0.1489(4)
O11 O 0.5213(5) 0.0577(3) 0.2189(3)
O12_2 O 0.2645(6) 0.0015(3) 0.1527(3)
C17_2 C 0.3420(7) 0.0393(3) 0.9623(4)
C18_2 C 0.3652(6) 0.0652(3) 0.8717(3)
H9_2 H 0.3191 0.0372 0.8151
C19_2 C 0.4565(6) 0.1331(3) 0.8619(3)
C20_2 C 0.5308(7) 0.1704(3) 0.9478(4)
H10_2 H 0.5955 0.2145 0.9438
C22_2 C 0.4828(6) 0.1592(3) 0.7639(3)
C23_2 C 0.5123(6) 0.1054(3) 0.6932(3)
H12_2 H 0.5140 0.0539 0.7089
C24_2 C 0.5392(6) 0.1276(3) 0.6000(3)
C25_2 C 0.5469(6) 0.2039(3) 0.5782(3)
H13_2 H 0.5691 0.2188 0.5168
C26_2 C 0.5220(6) 0.2585(3) 0.6464(3)
C27_2 C 0.4860(6) 0.2367(3) 0.7386(3)
H14_2 H 0.4643 0.2736 0.7832
C29_2 C 0.5553(7) 0.0710(3) 0.5237(4)
C30_2 C 0.5298(6) 0.3417(3) 0.6194(4)
O8_2 O 0.2619(5) 0.0090(2) 0.3522(3)
O14_2 O 0.5888(6) 0.0918(3) 0.4430(3)
H2_2 H 0.0032 0.6081 0.2255
C5_2 C 0.0190(6) 0.7227(3) 0.2411(4)
C6_2 C 0.0181(6) 0.7796(3) 0.3107(3)
H3_2 H 0.0323 0.8301 0.2935
C7_2 C 0.0395(6) 0.7420(3) 0.1388(4)
C11_2 C 0.1323(7) 0.8301(3) 0.0243(4)
H6_2 H 0.1866 0.8755 0.0125
C12_2 C 0.1295(6) 0.8090(3) 0.1212(4)
H7_2 H 0.1862 0.8387 0.1740
C13_2 C 0.0162(6) 0.8228(3) 0.4823(3)
H8_2 H 0.2737 0.9960 0.9653
O1_2 O 0.0057(6) 0.8050(2) 0.5695(3)
O2_2 O 0.3194(5) 0.8867(2) 0.6523(3)
O3_2 O 0.0441(5) 0.8905(2) 0.4575(2)
O6_2 O 0.8216(6) 0.9932(3) 0.3496(5)
O13_2 O 0.5274(4) 0.9990(2) 0.5413(3)
O19 O 0.0123(9) 0.7699(4) 0.7701(3)
O20 O 0.1016(5) 0.8778(3) 0.8239(3)
C10_2 C 0.0562(7) 0.7852(3) 0.9449(4)
C15_2 C 0.0596(8) 0.8128(4) 0.8401(4)
C1_2 C 0.9962(6) 0.7620(3) 0.4056(4)
C2_2 C 0.9594(6) 0.6875(3) 0.4307(3)
H1_2 H 0.9351 0.6766 0.4929
C3_2 C 0.9596(6) 0.6305(3) 0.3621(3)
C4_2 C 0.9951(6) 0.6474(3) 0.2696(3)
C8_2 C 0.9642(7) 0.6967(3) 0.0563(4)
H4_2 H 0.9045 0.6522 0.0661
C14_2 C 0.9171(6) 0.5485(3) 0.3875(3)
O4_2 O 0.7593(5) 0.8897(3) 0.6588(3)
C9_2 C 0.9781(8) 0.7175(4) 0.9621(4)
H5_2 H 0.9342 0.6854 0.9091
loop_
_geom_bond_atom_site_label_1
_geom_bond_atom_site_label_2
_geom_bond_site_symmetry_1
_geom_bond_site_symmetry_2
H5 C9 1_555 1_555
C1 C2 1_555 1_555
C2 H1 1_555 1_555
C3 C2 1_555 1_555
C4 C3 1_555 1_555
H4 C8 1_555 1_555
C14 C3 1_555 1_555
O5 C14 1_555 1_555
Co5 O7 1_555 1_555
C15 C10 1_555 1_555
O9 C15 1_555 1_555
O10 C15 1_555 1_555
Co4 O9 1_555 1_555
O10 Co4 1_555 1_555
Co4 O1 1_555 1_555
Co2 O2 1_555 1_555
Co3 O6 1_555 1_555
H3 C6 1_555 1_555
C7 C5 1_555 1_555
H6 C11 1_555 1_555
C12 C7 1_555 1_555
H7 C12 1_555 1_555
C17 H8 1_555 1_555
C18 C17 1_555 1_555
H9 C18 1_555 1_555
C19 C18 1_555 1_555
C20 C19 1_555 1_555
H10 C20 1_555 1_555
C22 C19 1_555 1_555
C23 C22 1_555 1_555
H12 C23 1_555 1_555
C24 C23 1_555 1_555
C25 C24 1_555 1_555
H13 C25 1_555 1_555
C26 C25 1_555 1_555
C27 C22 1_555 1_555
H14 C27 1_555 1_555
C29 C24 1_555 1_555
C30 C26 1_555 1_555
O1 C13 1_555 1_555
O2 Co4 1_555 1_555
O3 Co2 1_555 1_555
O8 Co2 1_555 1_555
O13 Co2 1_555 1_555
O14 Co3 1_555 1_555
O15 C30 1_555 1_555
O16 C30 1_555 1_555
Co7 O15 1_555 1_555
O17 Co2 1_555 1_555
O18 Co4 1_555 1_555
O21 Co3 1_555 1_555
O22 Co2 1_555 1_555
O23 Co3 1_555 1_555
Co3 O8 1_555 1_555
C5 C6 1_555 1_555
C11 C12 1_555 1_555
C13 O3 1_555 1_555
C26 C27 1_555 1_555
C29 O13 1_555 1_555
C29 O14 1_555 1_555
C21 C16 1_555 1_555
H11 C21 1_555 1_555
C28 C16 1_555 1_555
O21 C28 1_555 1_555
O12 C28 1_555 1_555
C21_2 C16_2 1_555 1_555
H11_2 C21_2 1_555 1_555
C28_2 C16_2 1_555 1_555
O11 C28_2 1_555 1_555
O12_2 C28_2 1_555 1_555
Co9 O11 1_555 1_555
C18_2 C17_2 1_555 1_555
H9_2 C18_2 1_555 1_555
C19_2 C18_2 1_555 1_555
C20_2 C19_2 1_555 1_555
H10_2 C20_2 1_555 1_555
C22_2 C19_2 1_555 1_555
C23_2 C22_2 1_555 1_555
H12_2 C23_2 1_555 1_555
C24_2 C23_2 1_555 1_555
C25_2 C24_2 1_555 1_555
H13_2 C25_2 1_555 1_555
C26_2 C25_2 1_555 1_555
C27_2 C22_2 1_555 1_555
H14_2 C27_2 1_555 1_555
C29_2 C24_2 1_555 1_555
C30_2 C26_2 1_555 1_555
O14_2 Co9 1_555 1_555
O22 C30_2 1_555 1_555
O23 C30_2 1_555 1_555
Co9 O8_2 1_555 1_555
C26_2 C27_2 1_555 1_555
C29_2 O14_2 1_555 1_555
Co5 O1_2 1_555 1_555
Co7 O2_2 1_555 1_555
H3_2 C6_2 1_555 1_555
C7_2 C5_2 1_555 1_555
H6_2 C11_2 1_555 1_555
C12_2 C7_2 1_555 1_555
H7_2 C12_2 1_555 1_555
O1_2 C13_2 1_555 1_555
O2_2 Co5 1_555 1_555
O3_2 Co7 1_555 1_555
O13_2 Co7 1_555 1_555
O19 Co5 1_555 1_555
O20 Co5 1_555 1_555
C5_2 C6_2 1_555 1_555
C11_2 C12_2 1_555 1_555
C13_2 O3_2 1_555 1_555
C15_2 C10_2 1_555 1_555
O19 C15_2 1_555 1_555
O20 C15_2 1_555 1_555
C1_2 C2_2 1_555 1_555
C2_2 H1_2 1_555 1_555
C3_2 C2_2 1_555 1_555
C4_2 C3_2 1_555 1_555
H4_2 C8_2 1_555 1_555
C14_2 C3_2 1_555 1_555
O17 C14_2 1_555 1_555
O18 C14_2 1_555 1_555
H5_2 C9_2 1_555 1_555

#END
