
###############################################################################
#
# This file contains modified crystal structure data generated from the
# MOF subset of the Cambridge Structural Database (CSD) v542 
# hosted by the Cambridge Crystallographic Data Centre (CCDC).
#
# This work is licensed under the Creative Commons
# Attribution-NonCommercial-ShareAlike 4.0 International License.
# To view a copy of this license, visit
# http://creativecommons.org/licenses/by-nc-sa/4.0/
# or send a letter to
# Creative Commons, PO Box 1866, Mountain View, CA 94042, USA.
#
# CIF created using the CSD Python API on 22 February 2021
# The structure has been converted into the P1 space group
# The structure has a 3D framework
# The original CSD entry FUBMAT is in the monoclinic crystal system
# The framework has been calculated to contain at least 10.0% void space
# The void calculation uses a probe of radius 1.32A, grid spacing 0.4
#
###############################################################################

data_FUBMAT
_chemical_formula_moiety         '(C120 H84 In20 O59)n'
_symmetry_cell_setting           triclinic
_symmetry_space_group_name_H-M   'P 1'
_symmetry_Int_Tables_number      1
_space_group_name_Hall           'P 1'
loop_
_symmetry_equiv_pos_site_id
_symmetry_equiv_pos_as_xyz
1 x,y,z
_cell_length_a                   14.53620(10)
_cell_length_b                   23.9923(3)
_cell_length_c                   18.7436(2)
_cell_angle_alpha                90
_cell_angle_beta                 105.0380(10)
_cell_angle_gamma                90
_cell_volume                     6313.09
loop_
_atom_site_label
_atom_site_type_symbol
_atom_site_fract_x
_atom_site_fract_y
_atom_site_fract_z
In8 In 0.000000 -0.000000 0.000000
In8_2 In 0.000000 -0.000000 1.000000
In4 In 0.500000 0.500000 0.000000
O5 O 0.3708(3) 0.53862(18) 0.0095(2)
H4 H 0.240551 0.599787 0.027099
H6 H 0.030809 0.819669 0.014619
In8_3 In 0.000000 1.000000 0.000000
O31 O 0.5749(2) 0.55944(15) 0.0735(2)
O42 O 0.4962(3) 0.44706(16) 0.0889(2)
In1 In 0.000000 0.500000 0.500000
In2 In 0.11572(2) 0.46685(2) 0.68894(2)
In3 In 0.32802(2) 0.47063(2) 0.83287(2)
In4_2 In 0.500000 0.500000 1.000000
O1 O 0.4251(2) 0.44056(15) 0.9265(2)
O2 O 0.2392(3) 0.50846(16) 0.7406(2)
O3 O 0.1257(2) 0.48535(15) 0.58119(19)
O4 O 0.2898(3) 0.54131(16) 0.8896(2)
O6 O 0.0072(3) 0.91904(16) 0.8570(2)
O7 O 0.0442(3) 0.91715(16) 0.9813(2)
O11 O 0.0362(3) 0.54083(17) 0.6879(2)
C1 C 0.3027(4) 0.5546(2) 0.9566(3)
C2 C 0.2333(4) 0.5920(3) 0.9773(3)
C3 C 0.1627(4) 0.6146(2) 0.9291(3)
H5 H 0.156483 0.608038 0.879127
C4 C 0.0916(4) 0.6504(2) 0.9507(3)
C5 C 0.0313(4) 0.7406(2) 0.9718(3)
C7 C 0.0343(4) 0.8017(2) 0.9714(3)
C8 C 0.0415(4) 0.8338(2) 0.9156(3)
H7 H 0.053059 0.817619 0.873662
C9 C 0.0313(3) 0.8944(2) 0.9191(3)
C25 C 0.0207(4) 0.6249(3) 0.9767(3)
H16 H 0.015625 0.586268 0.975991
C26 C 0.0976(4) 0.7079(2) 0.9475(3)
H17 H 0.144782 0.724610 0.929450
O25 O 0.0687(3) 0.46102(16) 0.4226(2)
O28 O 0.5554(3) 0.48926(17) 0.1977(2)
O29 O 0.3371(3) 0.10309(16) 0.2714(2)
O30 O 0.1924(3) 0.10864(17) 0.1938(2)
C43 C 0.0402(3) 0.4468(2) 0.3560(3)
C44 C 0.1046(4) 0.4123(2) 0.3253(3)
H31 H 0.159906 0.398522 0.357257
C45 C 0.0870(4) 0.4002(2) 0.2546(3)
H32 H 0.029475 0.412141 0.223763
C46 C 0.1524(4) 0.3688(2) 0.2206(3)
C47 C 0.2840(4) 0.3694(2) 0.1664(3)
C48 C 0.2143(4) 0.2826(2) 0.1873(3)
C49 C 0.3593(4) 0.3990(2) 0.1421(3)
H33 H 0.359769 0.396056 0.092756
C50 C 0.4268(4) 0.4296(2) 0.1863(3)
H34 H 0.429186 0.433227 0.236178
C51 C 0.4967(4) 0.4575(2) 0.1556(3)
C52 C 0.2110(4) 0.2218(2) 0.1887(3)
H35 H 0.154299 0.204627 0.164204
C53 C 0.2829(4) 0.1892(2) 0.2224(3)
H36 H 0.342683 0.204869 0.241957
C54 C 0.2703(4) 0.1291(2) 0.2295(3)
C57 C 0.2181(4) 0.3987(3) 0.1943(3)
H39 H 0.218288 0.437421 0.195091
C58 C 0.2805(4) 0.3115(2) 0.1609(3)
H40 H 0.322417 0.292564 0.139612
C59 C 0.1488(4) 0.3115(2) 0.2164(3)
H41 H 0.102888 0.292104 0.232951
In8_4 In 0.000000 1.000000 1.000000
In12 In 0.11572(2) 0.03315(2) 0.18894(2)
In17 In 0.67198(2) 0.52937(2) 0.16713(2)
In18 In 0.32802(2) 0.02937(2) 0.33287(2)
O32 O 0.6292(3) 0.46138(18) 0.9905(2)
O34 O 0.0072(3) 0.58096(16) 0.3570(2)
O36 O 0.0442(3) 0.58285(16) 0.4813(2)
O38 O 0.2206(2) 0.42528(16) 0.8733(2)
O40 O 0.0858(3) 0.44919(19) 0.7933(2)
O41 O 0.5038(3) 0.55294(16) 0.9111(2)
O43 O 0.4446(3) 0.51074(17) 0.8023(2)
O45 O 0.3371(3) 0.39691(16) 0.7714(2)
O47 O 0.1924(3) 0.39136(17) 0.6938(2)
C36 C 0.0429(4) 0.3431(2) 0.9962(3)
C40 C 0.1076(4) 0.3695(2) 0.9575(3)
H29 H 0.173051 0.365781 0.976846
C41 C 0.0753(4) 0.3983(3) 0.8958(3)
H30 H 0.009558 0.401497 0.877980
C42 C 0.1350(4) 0.4262(2) 0.8521(3)
C60 C 0.0380(4) 0.2852(3) 0.9996(3)
H42 H 0.081034 0.263457 0.982748
In8_5 In 1.000000 -0.000000 0.000000
In8_6 In 1.000000 -0.000000 1.000000
O8 O 0.7794(2) 0.57472(16) 0.1267(2)
O9 O 0.9142(3) 0.55081(19) 0.2067(2)
C6 C 0.9571(4) 0.6569(2) 0.0038(3)
C10 C 0.8924(4) 0.6305(2) 0.0425(3)
H8 H 0.826949 0.634219 0.023154
C11 C 0.9247(4) 0.6017(3) 0.1042(3)
H9 H 0.990442 0.598503 0.122020
C12 C 0.8650(4) 0.5738(2) 0.1479(3)
C30 C 0.9620(4) 0.7148(3) 0.0004(3)
H21 H 0.918966 0.736543 0.017252
In8_7 In 1.000000 1.000000 0.000000
In11 In 0.88428(2) 0.53315(2) 0.31106(2)
In1_2 In 1.000000 0.500000 0.500000
O10 O 0.9313(3) 0.53898(16) 0.5774(2)
O14 O 0.6629(3) 0.89691(16) 0.7286(2)
O15 O 0.8076(3) 0.89136(17) 0.8062(2)
C13 C 0.9598(3) 0.5532(2) 0.6440(3)
C14 C 0.8954(4) 0.5877(2) 0.6747(3)
H10 H 0.840094 0.601478 0.642743
C15 C 0.9130(4) 0.5998(2) 0.7454(3)
H11 H 0.970525 0.587859 0.776237
C16 C 0.8476(4) 0.6312(2) 0.7794(3)
C17 C 0.7160(4) 0.6306(2) 0.8336(3)
C18 C 0.7857(4) 0.7174(2) 0.8127(3)
C19 C 0.6407(4) 0.6010(2) 0.8579(3)
H12 H 0.640231 0.603944 0.907244
C20 C 0.5732(4) 0.5704(2) 0.8137(3)
H13 H 0.570814 0.566773 0.763822
C21 C 0.5033(4) 0.5425(2) 0.8444(3)
C22 C 0.7890(4) 0.7782(2) 0.8113(3)
H14 H 0.845701 0.795373 0.835796
C23 C 0.7171(4) 0.8108(2) 0.7776(3)
H15 H 0.657317 0.795131 0.758043
C24 C 0.7297(4) 0.8709(2) 0.7705(3)
C27 C 0.7819(4) 0.6013(3) 0.8057(3)
H18 H 0.781712 0.562579 0.804909
C28 C 0.7195(4) 0.6885(2) 0.8391(3)
H19 H 0.677583 0.707436 0.860388
C29 C 0.8512(4) 0.6885(2) 0.7836(3)
H20 H 0.897112 0.707896 0.767049
O17 O 0.7608(3) 0.49154(16) 0.2594(2)
O18 O 0.8743(2) 0.51465(15) 0.41881(19)
O19 O 0.7102(3) 0.45869(16) 0.1104(2)
O21 O 0.9928(3) 0.08096(16) 0.1430(2)
O22 O 0.9558(3) 0.08285(16) 0.0187(2)
O26 O 0.9638(3) 0.45917(17) 0.3121(2)
C31 C 0.6973(4) 0.4454(2) 0.0434(3)
C32 C 0.7667(4) 0.4080(3) 0.0227(3)
C33 C 0.8373(4) 0.3854(2) 0.0709(3)
H26 H 0.843517 0.391962 0.120873
C34 C 0.9084(4) 0.3496(2) 0.0493(3)
C35 C 0.9687(4) 0.2594(2) 0.0282(3)
C37 C 0.9657(4) 0.1983(2) 0.0286(3)
C38 C 0.9585(4) 0.1662(2) 0.0844(3)
H28 H 0.946941 0.182381 0.126338
C39 C 0.9687(3) 0.1056(2) 0.0809(3)
C55 C 0.9793(4) 0.3751(3) 0.0233(3)
H37 H 0.984375 0.413732 0.024009
C56 C 0.9024(4) 0.2921(2) 0.0525(3)
H38 H 0.855218 0.275390 0.070550
In8_8 In 1.000000 1.000000 1.000000
In10 In 0.88428(2) 0.96685(2) 0.81106(2)
In15 In 0.67198(2) 0.97063(2) 0.66713(2)
O33 O 0.9928(3) 0.41904(16) 0.6430(2)
O35 O 0.9558(3) 0.41715(16) 0.5187(2)
O46 O 0.6629(3) 0.60309(16) 0.2286(2)
O48 O 0.8076(3) 0.60864(17) 0.3062(2)
H25 H 0.759449 0.400213 0.972901
H27 H 0.969191 0.180331 0.985381
O16 O 0.4251(2) 0.05944(15) 0.4265(2)
O18_2 O 0.1257(2) 0.01465(15) 0.08119(19)
In19 In 0.500000 -0.000000 0.500000
O37 O 0.2206(2) 0.07472(16) 0.3733(2)
O39 O 0.0858(3) 0.05081(19) 0.2933(2)
O10_2 O 0.0687(3) 0.03898(16) 0.9226(2)
O12 O 0.4962(3) 0.05294(16) 0.5889(2)
O13 O 0.5554(3) 0.01074(17) 0.6977(2)
C6_2 C 0.0429(4) 0.1569(2) 0.4962(3)
C10_2 C 0.1076(4) 0.1305(2) 0.4575(3)
H8_2 H 0.173051 0.134219 0.476846
C11_2 C 0.0753(4) 0.1017(3) 0.3958(3)
H9_2 H 0.009558 0.098503 0.377980
C12_2 C 0.1350(4) 0.0738(2) 0.3521(3)
C13_2 C 0.0402(3) 0.0532(2) 0.8560(3)
C14_2 C 0.1046(4) 0.0877(2) 0.8253(3)
H10_2 H 0.159906 0.101478 0.857257
C15_2 C 0.0870(4) 0.0998(2) 0.7546(3)
H11_2 H 0.029475 0.087859 0.723763
C16_2 C 0.1524(4) 0.1312(2) 0.7206(3)
C17_2 C 0.2840(4) 0.1306(2) 0.6664(3)
C18_2 C 0.2143(4) 0.2174(2) 0.6873(3)
C19_2 C 0.3593(4) 0.1010(2) 0.6421(3)
H12_2 H 0.359769 0.103944 0.592756
C20_2 C 0.4268(4) 0.0704(2) 0.6863(3)
H13_2 H 0.429186 0.066773 0.736178
C21_2 C 0.4967(4) 0.0425(2) 0.6556(3)
C22_2 C 0.2110(4) 0.2782(2) 0.6887(3)
H14_2 H 0.154299 0.295373 0.664204
C23_2 C 0.2829(4) 0.3108(2) 0.7224(3)
H15_2 H 0.342683 0.295131 0.741957
C24_2 C 0.2703(4) 0.3709(2) 0.7295(3)
C27_2 C 0.2181(4) 0.1013(3) 0.6943(3)
H18_2 H 0.218288 0.062579 0.695091
C28_2 C 0.2805(4) 0.1885(2) 0.6609(3)
H19_2 H 0.322417 0.207436 0.639612
C29_2 C 0.1488(4) 0.1885(2) 0.7164(3)
H20_2 H 0.102888 0.207896 0.732951
C30_2 C 0.0380(4) 0.2148(3) 0.4996(3)
H21_2 H 0.081034 0.236543 0.482748
O17_2 O 0.2392(3) 0.99154(16) 0.2406(2)
O19_2 O 0.2898(3) 0.95869(16) 0.3896(2)
O20 O 0.3708(3) 0.96138(18) 0.5095(2)
O26_2 O 0.0362(3) 0.95917(17) 0.1879(2)
C31_2 C 0.3027(4) 0.9454(2) 0.4566(3)
C32_2 C 0.2333(4) 0.9080(3) 0.4773(3)
H25_2 H 0.240551 0.900213 0.527099
C33_2 C 0.1627(4) 0.8854(2) 0.4291(3)
H26_2 H 0.156483 0.891962 0.379127
C34_2 C 0.0916(4) 0.8496(2) 0.4507(3)
C35_2 C 0.0313(4) 0.7594(2) 0.4718(3)
C37_2 C 0.0343(4) 0.6983(2) 0.4714(3)
H27_2 H 0.030809 0.680331 0.514619
C38_2 C 0.0415(4) 0.6662(2) 0.4156(3)
H28_2 H 0.053059 0.682381 0.373662
C39_2 C 0.0313(3) 0.6056(2) 0.4191(3)
C55_2 C 0.0207(4) 0.8751(3) 0.4767(3)
H37_2 H 0.015625 0.913732 0.475991
C56_2 C 0.0976(4) 0.7921(2) 0.4475(3)
H38_2 H 0.144782 0.775390 0.429450
In19_2 In 0.500000 1.000000 0.500000
O44 O 0.4446(3) 0.98926(17) 0.3023(2)
O2_2 O 0.7608(3) 0.00846(16) 0.7594(2)
O4_2 O 0.7102(3) 0.04131(16) 0.6104(2)
O5_2 O 0.6292(3) 0.03862(18) 0.4905(2)
O11_2 O 0.9638(3) 0.04083(17) 0.8121(2)
C1_2 C 0.6973(4) 0.0546(2) 0.5434(3)
C2_2 C 0.7667(4) 0.0920(3) 0.5227(3)
H4_2 H 0.759449 0.099787 0.472901
C3_2 C 0.8373(4) 0.1146(2) 0.5709(3)
H5_2 H 0.843517 0.108038 0.620873
C4_2 C 0.9084(4) 0.1504(2) 0.5493(3)
C5_2 C 0.9687(4) 0.2406(2) 0.5282(3)
C7_2 C 0.9657(4) 0.3017(2) 0.5286(3)
H6_2 H 0.969191 0.319669 0.485381
C8_2 C 0.9585(4) 0.3338(2) 0.5844(3)
H7_2 H 0.946941 0.317619 0.626338
C9_2 C 0.9687(3) 0.3944(2) 0.5809(3)
C25_2 C 0.9793(4) 0.1249(3) 0.5233(3)
H16_2 H 0.984375 0.086268 0.524009
C26_2 C 0.9024(4) 0.2079(2) 0.5525(3)
H17_2 H 0.855218 0.224610 0.570550
O23 O 0.7794(2) 0.92528(16) 0.6267(2)
O24 O 0.9142(3) 0.94919(19) 0.7067(2)
O25_2 O 0.9313(3) 0.96102(16) 0.0774(2)
O27 O 0.5038(3) 0.94706(16) 0.4111(2)
C36_2 C 0.9571(4) 0.8431(2) 0.5038(3)
C40_2 C 0.8924(4) 0.8695(2) 0.5425(3)
H29_2 H 0.826949 0.865781 0.523154
C41_2 C 0.9247(4) 0.8983(3) 0.6042(3)
H30_2 H 0.990442 0.901497 0.622020
C42_2 C 0.8650(4) 0.9262(2) 0.6479(3)
C43_2 C 0.9598(3) 0.9468(2) 0.1440(3)
C44_2 C 0.8954(4) 0.9123(2) 0.1747(3)
H31_2 H 0.840094 0.898522 0.142743
C45_2 C 0.9130(4) 0.9002(2) 0.2454(3)
H32_2 H 0.970525 0.912141 0.276237
C46_2 C 0.8476(4) 0.8688(2) 0.2794(3)
C47_2 C 0.7160(4) 0.8694(2) 0.3336(3)
C48_2 C 0.7857(4) 0.7826(2) 0.3127(3)
C49_2 C 0.6407(4) 0.8990(2) 0.3579(3)
H33_2 H 0.640231 0.896056 0.407244
C50_2 C 0.5732(4) 0.9296(2) 0.3137(3)
H34_2 H 0.570814 0.933227 0.263822
C51_2 C 0.5033(4) 0.9575(2) 0.3444(3)
C52_2 C 0.7890(4) 0.7218(2) 0.3113(3)
H35_2 H 0.845701 0.704627 0.335796
C53_2 C 0.7171(4) 0.6892(2) 0.2776(3)
H36_2 H 0.657317 0.704869 0.258043
C54_2 C 0.7297(4) 0.6291(2) 0.2705(3)
C57_2 C 0.7819(4) 0.8987(3) 0.3057(3)
H39_2 H 0.781712 0.937421 0.304909
C58_2 C 0.7195(4) 0.8115(2) 0.3391(3)
H40_2 H 0.677583 0.792564 0.360388
C59_2 C 0.8512(4) 0.8115(2) 0.2836(3)
H41_2 H 0.897112 0.792104 0.267049
C60_2 C 0.9620(4) 0.7852(3) 0.5004(3)
H42_2 H 0.918966 0.763457 0.517252
O1_2 O 0.5749(2) 0.94056(15) 0.5735(2)
O3_2 O 0.8743(2) 0.98535(15) 0.91881(19)
loop_
_geom_bond_atom_site_label_1
_geom_bond_atom_site_label_2
_geom_bond_site_symmetry_1
_geom_bond_site_symmetry_2
O5 In4 1_555 1_555
O31 In4 1_555 1_555
O42 In4 1_555 1_555
In1 O3 1_555 1_555
In2 O2 1_555 1_555
In3 O1 1_555 1_555
In4_2 O1 1_555 1_555
O2 In3 1_555 1_555
O3 In2 1_555 1_555
O4 In3 1_555 1_555
O6 C9 1_555 1_555
O7 C9 1_555 1_555
O11 In2 1_555 1_555
C1 O4 1_555 1_555
C2 C1 1_555 1_555
C3 C2 1_555 1_555
H5 C3 1_555 1_555
C4 C3 1_555 1_555
C5 C7 1_555 1_555
C8 C7 1_555 1_555
H7 C8 1_555 1_555
C9 C8 1_555 1_555
C25 C4 1_555 1_555
H16 C25 1_555 1_555
C26 C4 1_555 1_555
H17 C26 1_555 1_555
O25 In1 1_555 1_555
O42 C51 1_555 1_555
O28 C51 1_555 1_555
O29 C54 1_555 1_555
O30 C54 1_555 1_555
C43 O25 1_555 1_555
C44 C43 1_555 1_555
H31 C44 1_555 1_555
C45 C44 1_555 1_555
H32 C45 1_555 1_555
C46 C45 1_555 1_555
C47 C49 1_555 1_555
C48 C52 1_555 1_555
C49 H33 1_555 1_555
C50 C49 1_555 1_555
H34 C50 1_555 1_555
C51 C50 1_555 1_555
C52 H35 1_555 1_555
C53 C52 1_555 1_555
H36 C53 1_555 1_555
C54 C53 1_555 1_555
C57 C46 1_555 1_555
H39 C57 1_555 1_555
C58 C47 1_555 1_555
H40 C58 1_555 1_555
C59 C46 1_555 1_555
H41 C59 1_555 1_555
In8_4 O7 1_555 1_555
In17 O28 1_555 1_555
In18 O29 1_555 1_555
O32 In4_2 1_555 1_555
O36 In1 1_555 1_555
O38 In3 1_555 1_555
O40 In2 1_555 1_555
O41 In4_2 1_555 1_555
O43 In3 1_555 1_555
O45 In3 1_555 1_555
O47 In2 1_555 1_555
C5 C26 1_555 1_555
O30 In12 1_555 1_555
C47 C57 1_555 1_555
C48 C58 1_555 1_555
C48 C59 1_555 1_555
O38 C42 1_555 1_555
O40 C42 1_555 1_555
C36 C40 1_555 1_555
C40 H29 1_555 1_555
C41 C40 1_555 1_555
H30 C41 1_555 1_555
C42 C41 1_555 1_555
H42 C60 1_555 1_555
C36 C60 1_555 1_555
O8 C12 1_555 1_555
O9 C12 1_555 1_555
C6 C10 1_555 1_555
C10 H8 1_555 1_555
C11 C10 1_555 1_555
H9 C11 1_555 1_555
C12 C11 1_555 1_555
H21 C30 1_555 1_555
In11 O9 1_555 1_555
In17 O8 1_555 1_555
C6 C30 1_555 1_555
O10 In1_2 1_555 1_555
O41 C21 1_555 1_555
O43 C21 1_555 1_555
O14 C24 1_555 1_555
O15 C24 1_555 1_555
C13 O10 1_555 1_555
C14 C13 1_555 1_555
H10 C14 1_555 1_555
C15 C14 1_555 1_555
H11 C15 1_555 1_555
C16 C15 1_555 1_555
C17 C19 1_555 1_555
C18 C22 1_555 1_555
C19 H12 1_555 1_555
C20 C19 1_555 1_555
H13 C20 1_555 1_555
C21 C20 1_555 1_555
C22 H14 1_555 1_555
C23 C22 1_555 1_555
H15 C23 1_555 1_555
C24 C23 1_555 1_555
C27 C16 1_555 1_555
H18 C27 1_555 1_555
C28 C17 1_555 1_555
H19 C28 1_555 1_555
C29 C16 1_555 1_555
H20 C29 1_555 1_555
In11 O17 1_555 1_555
In17 O31 1_555 1_555
O17 In17 1_555 1_555
O18 In1_2 1_555 1_555
O19 In17 1_555 1_555
O21 C39 1_555 1_555
O22 C39 1_555 1_555
O26 In11 1_555 1_555
C31 O19 1_555 1_555
C32 C31 1_555 1_555
C33 C32 1_555 1_555
H26 C33 1_555 1_555
C34 C33 1_555 1_555
C35 C37 1_555 1_555
C38 C37 1_555 1_555
H28 C38 1_555 1_555
C39 C38 1_555 1_555
C55 C34 1_555 1_555
H37 C55 1_555 1_555
C56 C34 1_555 1_555
H38 C56 1_555 1_555
In8_5 O22 1_555 1_555
In15 O14 1_555 1_555
O35 In1_2 1_555 1_555
O46 In17 1_555 1_555
O48 In11 1_555 1_555
O15 In10 1_555 1_555
C17 C27 1_555 1_555
C18 C28 1_555 1_555
C18 C29 1_555 1_555
In11 O18 1_555 1_555
C35 C56 1_555 1_555
In18 O16 1_555 1_555
O18_2 In8 1_555 1_555
In19 O16 1_555 1_555
O37 In18 1_555 1_555
O39 In12 1_555 1_555
In12 O18_2 1_555 1_555
O37 C12_2 1_555 1_555
O39 C12_2 1_555 1_555
O10_2 In8_2 1_555 1_555
O12 C21_2 1_555 1_555
O13 C21_2 1_555 1_555
O45 C24_2 1_555 1_555
O47 C24_2 1_555 1_555
C6_2 C10_2 1_555 1_555
C10_2 H8_2 1_555 1_555
C11_2 C10_2 1_555 1_555
H9_2 C11_2 1_555 1_555
C12_2 C11_2 1_555 1_555
C13_2 O10_2 1_555 1_555
C14_2 C13_2 1_555 1_555
H10_2 C14_2 1_555 1_555
C15_2 C14_2 1_555 1_555
H11_2 C15_2 1_555 1_555
C16_2 C15_2 1_555 1_555
C17_2 C19_2 1_555 1_555
C18_2 C22_2 1_555 1_555
C19_2 H12_2 1_555 1_555
C20_2 C19_2 1_555 1_555
H13_2 C20_2 1_555 1_555
C21_2 C20_2 1_555 1_555
C22_2 H14_2 1_555 1_555
C23_2 C22_2 1_555 1_555
H15_2 C23_2 1_555 1_555
C24_2 C23_2 1_555 1_555
C27_2 C16_2 1_555 1_555
H18_2 C27_2 1_555 1_555
C28_2 C17_2 1_555 1_555
H19_2 C28_2 1_555 1_555
C29_2 C16_2 1_555 1_555
H20_2 C29_2 1_555 1_555
H21_2 C30_2 1_555 1_555
In19 O12 1_555 1_555
C6_2 C30_2 1_555 1_555
C17_2 C27_2 1_555 1_555
C18_2 C28_2 1_555 1_555
C18_2 C29_2 1_555 1_555
O20 C31_2 1_555 1_555
O34 C39_2 1_555 1_555
O36 C39_2 1_555 1_555
C31_2 O19_2 1_555 1_555
C32_2 C31_2 1_555 1_555
H25_2 C32_2 1_555 1_555
C33_2 C32_2 1_555 1_555
H26_2 C33_2 1_555 1_555
C34_2 C33_2 1_555 1_555
C35_2 C37_2 1_555 1_555
C37_2 H27_2 1_555 1_555
C38_2 C37_2 1_555 1_555
H28_2 C38_2 1_555 1_555
C39_2 C38_2 1_555 1_555
C55_2 C34_2 1_555 1_555
H37_2 C55_2 1_555 1_555
C56_2 C34_2 1_555 1_555
H38_2 C56_2 1_555 1_555
O20 In19_2 1_555 1_555
C35_2 C56_2 1_555 1_555
O5_2 In19 1_555 1_555
O33 C9_2 1_555 1_555
O35 C9_2 1_555 1_555
C1_2 O4_2 1_555 1_555
C2_2 C1_2 1_555 1_555
H4_2 C2_2 1_555 1_555
C3_2 C2_2 1_555 1_555
H5_2 C3_2 1_555 1_555
C4_2 C3_2 1_555 1_555
C5_2 C7_2 1_555 1_555
C7_2 H6_2 1_555 1_555
C8_2 C7_2 1_555 1_555
H7_2 C8_2 1_555 1_555
C9_2 C8_2 1_555 1_555
C25_2 C4_2 1_555 1_555
H16_2 C25_2 1_555 1_555
C26_2 C4_2 1_555 1_555
H17_2 C26_2 1_555 1_555
O5_2 C1_2 1_555 1_555
C5_2 C26_2 1_555 1_555
O23 C42_2 1_555 1_555
O24 C42_2 1_555 1_555
O25_2 In8_7 1_555 1_555
O27 C51_2 1_555 1_555
O44 C51_2 1_555 1_555
O46 C54_2 1_555 1_555
O48 C54_2 1_555 1_555
C36_2 C40_2 1_555 1_555
C40_2 H29_2 1_555 1_555
C41_2 C40_2 1_555 1_555
H30_2 C41_2 1_555 1_555
C42_2 C41_2 1_555 1_555
C43_2 O25_2 1_555 1_555
C44_2 C43_2 1_555 1_555
H31_2 C44_2 1_555 1_555
C45_2 C44_2 1_555 1_555
H32_2 C45_2 1_555 1_555
C46_2 C45_2 1_555 1_555
C47_2 C49_2 1_555 1_555
C48_2 C52_2 1_555 1_555
C49_2 H33_2 1_555 1_555
C50_2 C49_2 1_555 1_555
H34_2 C50_2 1_555 1_555
C51_2 C50_2 1_555 1_555
C52_2 H35_2 1_555 1_555
C53_2 C52_2 1_555 1_555
H36_2 C53_2 1_555 1_555
C54_2 C53_2 1_555 1_555
C57_2 C46_2 1_555 1_555
H39_2 C57_2 1_555 1_555
C58_2 C47_2 1_555 1_555
H40_2 C58_2 1_555 1_555
C59_2 C46_2 1_555 1_555
H41_2 C59_2 1_555 1_555
H42_2 C60_2 1_555 1_555
In10 O24 1_555 1_555
In15 O23 1_555 1_555
In19_2 O27 1_555 1_555
C36_2 C60_2 1_555 1_555
C47_2 C57_2 1_555 1_555
C48_2 C58_2 1_555 1_555
C48_2 C59_2 1_555 1_555
In8_8 O3_2 1_555 1_555
In15 O1_2 1_555 1_555
In19_2 O1_2 1_555 1_555
O3_2 In10 1_555 1_555

#END
