
###############################################################################
#
# This file contains modified crystal structure data generated from the
# MOF subset of the Cambridge Structural Database (CSD) v542 
# hosted by the Cambridge Crystallographic Data Centre (CCDC).
#
# This work is licensed under the Creative Commons
# Attribution-NonCommercial-ShareAlike 4.0 International License.
# To view a copy of this license, visit
# http://creativecommons.org/licenses/by-nc-sa/4.0/
# or send a letter to
# Creative Commons, PO Box 1866, Mountain View, CA 94042, USA.
#
# CIF created using the CSD Python API on 22 February 2021
# The structure has been converted into the P1 space group
# The structure has a 3D framework
# The original CSD entry FUSSEU is in the triclinic crystal system
# The framework has been calculated to contain at least 10.0% void space
# The void calculation uses a probe of radius 1.32A, grid spacing 0.4
#
###############################################################################

data_FUSSEU
_chemical_formula_moiety         '(C42 H26 N10 O8)n'
_symmetry_cell_setting           triclinic
_symmetry_space_group_name_H-M   'P 1'
_symmetry_Int_Tables_number      1
_space_group_name_Hall           'P 1'
loop_
_symmetry_equiv_pos_site_id
_symmetry_equiv_pos_as_xyz
1 x,y,z
_cell_length_a                   9.963(2)
_cell_length_b                   10.4752(9)
_cell_length_c                   12.6359(15)
_cell_angle_alpha                72.0230(10)
_cell_angle_beta                 74.1450(10)
_cell_angle_gamma                79.7860(10)
_cell_volume                     1200.39
loop_
_atom_site_label
_atom_site_type_symbol
_atom_site_fract_x
_atom_site_fract_y
_atom_site_fract_z
H12 H 0.049404 0.548941 0.607226
H13 H 0.009147 0.441207 0.798581
C1 C 0.2019(3) 0.7202(4) 0.3955(3)
C2 C 0.3488(3) 0.6603(3) 0.3710(3)
C3 C 0.4454(3) 0.7055(3) 0.4064(3)
H1 H 0.418070 0.772050 0.444790
C4 C 0.5823(3) 0.6520(3) 0.3846(3)
C5 C 0.6860(3) 0.7028(3) 0.4230(3)
C6 C 0.6212(3) 0.5530(3) 0.3272(3)
H2 H 0.714688 0.517664 0.311940
C7 C 0.5247(3) 0.5057(3) 0.2921(3)
C8 C 0.3879(3) 0.5600(3) 0.3154(3)
H3 H 0.320590 0.529097 0.293496
C9 C 0.5647(4) 0.3963(4) 0.2322(3)
H4 H 0.577998 0.310571 0.288236
H5 H 0.487625 0.392004 0.200736
C10 C 0.8584(6) 0.0466(4) 0.3824(3)
H6 H 0.849217 0.033660 0.460108
C11 C 0.8273(5) 0.1732(4) 0.3163(4)
H7 H 0.798603 0.244117 0.349783
C12 C 0.8376(4) 0.1980(4) 0.2007(3)
C13 C 0.8820(8) 0.0905(6) 0.1558(4)
H8 H 0.891948 0.101204 0.078240
C15 C 0.8052(4) 0.3284(4) 0.1211(3)
N2 N 0.6912(3) 0.4137(3) 0.1406(2)
N3 N 0.6906(3) 0.5193(3) 0.0442(3)
N4 N 0.8815(3) 0.3749(3) 0.0150(2)
O1 O 0.1121(2) 0.6655(3) 0.3757(2)
O2 O 0.1708(3) 0.8161(3) 0.4358(3)
O3 O 0.6481(3) 0.7828(3) 0.4825(3)
O4 O 0.8118(2) 0.6613(2) 0.3901(2)
Co4 Co 0.93062(3) 0.75381(4) 0.43658(3)
C16 C 0.8077(4) 0.4914(4) 0.9716(3)
C17 C 0.8460(3) 0.5698(3) 0.8505(3)
C18 C 0.7723(4) 0.6881(4) 0.8051(3)
H10 H 0.702322 0.729097 0.853288
C19 C 0.8013(4) 0.7477(4) 0.6871(3)
H11 H 0.748024 0.827425 0.659484
C20 C 0.9764(3) 0.5852(4) 0.6568(3)
C21 C 0.9529(4) 0.5195(4) 0.7727(3)
N5 N 0.9003(3) 0.6977(3) 0.6121(2)
C14 C 0.9115(9) 0.9666(6) 0.2273(4)
H9 H 0.941094 0.893670 0.196409
N1 N 0.9000(3) 0.9445(3) 0.3410(2)
Co1 Co 0.06938(3) 0.24619(4) 0.56342(3)
N6 N 0.1000(3) 0.0555(3) 0.6590(2)
N7 N 0.0997(3) 0.3023(3) 0.3879(2)
O5 O 0.1882(2) 0.3387(2) 0.6099(2)
C14_2 C 0.0885(9) 0.0334(6) 0.7727(4)
H9_2 H 0.058906 0.106330 0.803591
C16_2 C 0.1923(4) 0.5086(4) 0.0284(3)
C17_2 C 0.1540(3) 0.4302(3) 0.1495(3)
C18_2 C 0.2277(4) 0.3119(4) 0.1949(3)
H10_2 H 0.297678 0.270903 0.146712
C19_2 C 0.1987(4) 0.2523(4) 0.3129(3)
H11_2 H 0.251976 0.172575 0.340516
C20_2 C 0.0236(3) 0.4148(4) 0.3432(3)
C21_2 C 0.0471(4) 0.4805(4) 0.2273(3)
C1_2 C 0.7981(3) 0.2798(4) 0.6045(3)
C2_2 C 0.6512(3) 0.3397(3) 0.6290(3)
C3_2 C 0.5546(3) 0.2945(3) 0.5936(3)
H1_2 H 0.581930 0.227950 0.555210
C4_2 C 0.4177(3) 0.3480(3) 0.6154(3)
C5_2 C 0.3140(3) 0.2972(3) 0.5770(3)
C6_2 C 0.3788(3) 0.4470(3) 0.6728(3)
H2_2 H 0.285312 0.482336 0.688060
C7_2 C 0.4753(3) 0.4943(3) 0.7079(3)
C8_2 C 0.6121(3) 0.4400(3) 0.6846(3)
H3_2 H 0.679410 0.470903 0.706504
C9_2 C 0.4353(4) 0.6037(4) 0.7678(3)
H4_2 H 0.422002 0.689429 0.711764
H5_2 H 0.512375 0.607996 0.799264
C10_2 C 0.1416(6) 0.9534(4) 0.6176(3)
H6_2 H 0.150783 0.966340 0.539892
C11_2 C 0.1727(5) 0.8268(4) 0.6837(4)
H7_2 H 0.201397 0.755883 0.650217
C12_2 C 0.1624(4) 0.8020(4) 0.7993(3)
C13_2 C 0.1180(8) 0.9095(6) 0.8442(4)
H8_2 H 0.108052 0.898796 0.921760
C15_2 C 0.1948(4) 0.6716(4) 0.8789(3)
N2_2 N 0.3088(3) 0.5863(3) 0.8594(2)
N3_2 N 0.3094(3) 0.4807(3) 0.9558(3)
N4_2 N 0.1185(3) 0.6251(3) 0.9850(2)
O1_2 O 0.8879(2) 0.3345(3) 0.6243(2)
O2_2 O 0.8292(3) 0.1839(3) 0.5642(3)
O3_2 O 0.3519(3) 0.2172(3) 0.5175(3)
H12_2 H 0.950596 0.451059 0.392774
H13_2 H 0.990853 0.558793 0.201419
loop_
_geom_bond_atom_site_label_1
_geom_bond_atom_site_label_2
_geom_bond_site_symmetry_1
_geom_bond_site_symmetry_2
C1 C2 1_555 1_555
C2 C3 1_555 1_555
C3 H1 1_555 1_555
C4 C3 1_555 1_555
C5 C4 1_555 1_555
C6 C4 1_555 1_555
H2 C6 1_555 1_555
C7 C6 1_555 1_555
C8 C2 1_555 1_555
H3 C8 1_555 1_555
C9 C7 1_555 1_555
H4 C9 1_555 1_555
H5 C9 1_555 1_555
C10 H6 1_555 1_555
C11 C10 1_555 1_555
H7 C11 1_555 1_555
C12 C11 1_555 1_555
C13 C12 1_555 1_555
H8 C13 1_555 1_555
C15 C12 1_555 1_555
N2 C9 1_555 1_555
N4 C15 1_555 1_555
O1 C1 1_555 1_555
O2 C1 1_555 1_555
O3 C5 1_555 1_555
O4 C5 1_555 1_555
Co4 O4 1_555 1_555
C7 C8 1_555 1_555
C15 N2 1_555 1_555
N2 N3 1_555 1_555
C16 C17 1_555 1_555
C17 C18 1_555 1_555
C18 H10 1_555 1_555
C19 C18 1_555 1_555
H11 C19 1_555 1_555
C21 C17 1_555 1_555
N5 C19 1_555 1_555
Co4 N5 1_555 1_555
C20 C21 1_555 1_555
C20 N5 1_555 1_555
H9 C14 1_555 1_555
Co4 N1 1_555 1_555
C14 N1 1_555 1_555
N6 Co1 1_555 1_555
N7 Co1 1_555 1_555
O5 Co1 1_555 1_555
H9_2 C14_2 1_555 1_555
C14_2 N6 1_555 1_555
C16_2 C17_2 1_555 1_555
C17_2 C18_2 1_555 1_555
C18_2 H10_2 1_555 1_555
C19_2 C18_2 1_555 1_555
H11_2 C19_2 1_555 1_555
C21_2 C17_2 1_555 1_555
N7 C19_2 1_555 1_555
C20_2 C21_2 1_555 1_555
C20_2 N7 1_555 1_555
C1_2 C2_2 1_555 1_555
C2_2 C3_2 1_555 1_555
C3_2 H1_2 1_555 1_555
C4_2 C3_2 1_555 1_555
C5_2 C4_2 1_555 1_555
C6_2 C4_2 1_555 1_555
H2_2 C6_2 1_555 1_555
C7_2 C6_2 1_555 1_555
C8_2 C2_2 1_555 1_555
H3_2 C8_2 1_555 1_555
C9_2 C7_2 1_555 1_555
H4_2 C9_2 1_555 1_555
H5_2 C9_2 1_555 1_555
C10_2 H6_2 1_555 1_555
C11_2 C10_2 1_555 1_555
H7_2 C11_2 1_555 1_555
C12_2 C11_2 1_555 1_555
C13_2 C12_2 1_555 1_555
H8_2 C13_2 1_555 1_555
C15_2 C12_2 1_555 1_555
N2_2 C9_2 1_555 1_555
N4_2 C15_2 1_555 1_555
O1_2 C1_2 1_555 1_555
O2_2 C1_2 1_555 1_555
O3_2 C5_2 1_555 1_555
O5 C5_2 1_555 1_555
C7_2 C8_2 1_555 1_555
C15_2 N2_2 1_555 1_555
N2_2 N3_2 1_555 1_555

#END
