
###############################################################################
#
# This file contains modified crystal structure data generated from the
# MOF subset of the Cambridge Structural Database (CSD) v542 
# hosted by the Cambridge Crystallographic Data Centre (CCDC).
#
# This work is licensed under the Creative Commons
# Attribution-NonCommercial-ShareAlike 4.0 International License.
# To view a copy of this license, visit
# http://creativecommons.org/licenses/by-nc-sa/4.0/
# or send a letter to
# Creative Commons, PO Box 1866, Mountain View, CA 94042, USA.
#
# CIF created using the CSD Python API on 22 February 2021
# The structure has been converted into the P1 space group
# The structure has a 3D framework
# The original CSD entry GIWZUK is in the monoclinic crystal system
# The framework has been calculated to contain at least 10.0% void space
# The void calculation uses a probe of radius 1.32A, grid spacing 0.4
#
###############################################################################

data_GIWZUK
_chemical_formula_moiety         '(C132 H100 Er4 N16 O34)n'
_symmetry_cell_setting           triclinic
_symmetry_space_group_name_H-M   'P 1'
_symmetry_Int_Tables_number      1
_space_group_name_Hall           'P 1'
loop_
_symmetry_equiv_pos_site_id
_symmetry_equiv_pos_as_xyz
1 x,y,z
_cell_length_a                   20.4409(7)
_cell_length_b                   7.9561(3)
_cell_length_c                   33.4901(14)
_cell_angle_alpha                90
_cell_angle_beta                 90.150(4)
_cell_angle_gamma                90
_cell_volume                     5446.47
loop_
_atom_site_label
_atom_site_type_symbol
_atom_site_fract_x
_atom_site_fract_y
_atom_site_fract_z
Er6 Er 0.01213(2) 0.75917(4) 0.51627(2)
O5 O 0.05150(17) 0.1235(5) 0.43158(11)
C2 C 0.0852(2) 0.0280(7) 0.45268(17)
H7 H 0.134178 0.047363 0.380889
Er1 Er 0.51213(2) 0.24083(4) 0.01627(2)
O1 O 0.89645(16) 0.3854(5) 0.49969(11)
O2 O 0.06677(16) 0.9900(4) 0.48844(11)
O3 O 0.50824(19) 0.4674(5) 0.05554(11)
O4 O 0.58622(19) 0.1483(6) 0.06660(12)
O6 O 0.49902(19) 0.7439(5) 0.05267(10)
O7 O 0.90569(17) 0.6626(5) 0.50515(13)
C1 C 0.8751(2) 0.5315(7) 0.49592(16)
C3 C 0.8089(3) 0.5551(8) 0.47812(17)
C4 C 0.5059(3) 0.6166(8) 0.11617(17)
C5 C 0.5039(2) 0.6087(7) 0.07145(16)
C6 C 0.1481(2) 0.9681(7) 0.43722(17)
N2 N 0.3320(2) 0.8372(8) 0.38894(17)
H1 H 0.338023 0.878137 0.365477
C7 C 0.2554(3) 0.8444(8) 0.44674(19)
H2 H 0.285824 0.793430 0.463473
N3 N 0.6301(3) 0.6364(9) 0.41905(18)
H3 H 0.602195 0.699698 0.430937
C8 C 0.6101(3) 0.0158(9) 0.07547(19)
C9 C 0.1943(3) 0.8892(8) 0.46095(18)
H5 H 0.183941 0.865354 0.487379
C10 C 0.7817(3) 0.4310(8) 0.45480(19)
H6 H 0.803060 0.328344 0.452373
C11 C 0.1646(3) 0.9968(9) 0.3977(2)
C12 C 0.2703(3) 0.8769(9) 0.4072(2)
C13 C 0.6903(3) 0.6039(10) 0.4393(2)
O8 O 0.3825(3) 0.6881(10) 0.43736(16)
C14 C 0.7743(3) 0.7031(9) 0.4832(2)
H8 H 0.790966 0.787441 0.499587
N4 N 0.5110(3) 0.6262(11) 0.24147(17)
H9 H 0.540637 0.563919 0.252127
C15 C 0.7233(3) 0.4561(10) 0.4349(2)
H10 H 0.706417 0.372139 0.418531
C16 C 0.2246(3) 0.9525(11) 0.3828(2)
H11 H 0.234465 0.973632 0.356179
C17 C 0.5200(4) 0.4755(10) 0.1377(2)
H12 H 0.529514 0.375609 0.124542
C18 C 0.7147(3) 0.7257(10) 0.4638(2)
H13 H 0.691270 0.824637 0.467642
C19 C 0.4947(3) 0.7680(9) 0.13591(18)
H14 H 0.486940 0.865591 0.121347
O9 O 0.6489(3) 0.4853(12) 0.36397(18)
C20 C 0.4357(3) 0.7144(10) 0.3744(2)
C21 C 0.4961(3) 0.6697(10) 0.39161(19)
H15 H 0.500471 0.664973 0.419228
C22 C 0.5483(3) 0.6332(11) 0.3676(2)
C23 C 0.5083(3) 0.6291(12) 0.1986(2)
C24 C 0.4949(4) 0.7729(10) 0.1768(2)
H16 H 0.486121 0.873232 0.189983
C25 C 0.4308(3) 0.7220(11) 0.3337(2)
H17 H 0.391220 0.752727 0.322005
C26 C 0.5204(4) 0.4797(11) 0.1788(2)
H18 H 0.528682 0.382167 0.193249
C27 C 0.3803(3) 0.7466(12) 0.4034(2)
C28 C 0.4841(3) 0.6845(11) 0.30960(19)
C29 C 0.5416(3) 0.6388(11) 0.3270(2)
H19 H 0.577045 0.610773 0.310926
C31 C 0.6141(3) 0.5785(13) 0.3843(2)
O10 O 0.4329(5) 0.8079(16) 0.2530(2)
C32 C 0.4741(4) 0.7060(16) 0.2651(2)
C33 C 0.6498(6) 0.1150(16) 0.1374(3)
H23 H 0.656085 0.220337 0.123929
H24 H 0.686781 0.092768 0.154338
H25 H 0.610854 0.120264 0.153248
Er3 Er 0.98787(2) 0.24083(4) 0.48373(2)
O11 O 0.60355(16) 0.3854(5) 0.00031(11)
O14 O 0.44850(17) 0.1235(5) 0.06842(11)
O16 O 0.40569(17) 0.3374(5) 0.00515(13)
Er4 Er 0.48787(2) 0.75917(4) 0.98373(2)
O13 O 0.56677(16) 0.0100(4) 0.98844(11)
O15 O 0.50098(19) 0.2561(5) 0.94733(10)
N1 N 0.6436(3) 0.9828(9) 0.10836(17)
H4 H 0.604539 0.927840 0.057486
C30 C 0.6678(4) 0.8158(11) 0.1179(3)
H20 H 0.649003 0.778836 0.142668
H21 H 0.714582 0.819051 0.120462
H22 H 0.655834 0.739162 0.097018
O12 O 0.43323(16) 0.9900(4) 0.01156(11)
C2_2 C 0.4148(2) 0.0280(7) 0.04732(17)
H7_2 H 0.365822 0.047363 0.119111
O6_2 O 0.00098(19) 0.7439(5) 0.44733(10)
C6_2 C 0.3519(2) 0.9681(7) 0.06278(17)
N2_2 N 0.1680(2) 0.8372(8) 0.11106(17)
H1_2 H 0.161977 0.878137 0.134523
C7_2 C 0.2446(3) 0.8444(8) 0.05326(19)
H2_2 H 0.214176 0.793430 0.036527
C9_2 C 0.3057(3) 0.8892(8) 0.03905(18)
H5_2 H 0.316059 0.865354 0.012621
C11_2 C 0.3354(3) 0.9968(9) 0.1023(2)
C12_2 C 0.2297(3) 0.8769(9) 0.0928(2)
O8_2 O 0.1175(3) 0.6881(10) 0.06264(16)
C16_2 C 0.2754(3) 0.9525(11) 0.1172(2)
H11_2 H 0.265535 0.973632 0.143821
C19_2 C 0.0053(3) 0.7680(9) 0.36409(18)
H14_2 H 0.013060 0.865591 0.378653
C20_2 C 0.0643(3) 0.7144(10) 0.1256(2)
C21_2 C 0.0039(3) 0.6697(10) 0.10839(19)
C24_2 C 0.0051(4) 0.7729(10) 0.3232(2)
H16_2 H 0.013879 0.873232 0.310017
C25_2 C 0.0692(3) 0.7220(11) 0.1663(2)
H17_2 H 0.108780 0.752727 0.177995
C27_2 C 0.1197(3) 0.7466(12) 0.0966(2)
C28_2 C 0.0159(3) 0.6845(11) 0.19040(19)
O10_2 O 0.0671(5) 0.8079(16) 0.2470(2)
C32_2 C 0.0259(4) 0.7060(16) 0.2349(2)
O16_2 O 0.09431(17) 0.3374(5) 0.49485(13)
O3_2 O 0.99176(19) 0.4674(5) 0.44446(11)
O4_2 O 0.91378(19) 0.1483(6) 0.43340(12)
C1_2 C 0.6249(2) 0.5315(7) 0.00408(16)
C3_2 C 0.6911(3) 0.5551(8) 0.02188(17)
C4_2 C 0.9941(3) 0.6166(8) 0.38383(17)
C5_2 C 0.9961(2) 0.6087(7) 0.42855(16)
N3_2 N 0.8699(3) 0.6364(9) 0.08095(18)
H3_2 H 0.897805 0.699698 0.069063
C8_2 C 0.8899(3) 0.0158(9) 0.42453(19)
C10_2 C 0.7183(3) 0.4310(8) 0.04520(19)
H6_2 H 0.696940 0.328344 0.047627
C13_2 C 0.8097(3) 0.6039(10) 0.0607(2)
C14_2 C 0.7257(3) 0.7031(9) 0.0168(2)
H8_2 H 0.709034 0.787441 0.000413
N4_2 N 0.9890(3) 0.6262(11) 0.25853(17)
H9_2 H 0.959363 0.563919 0.247873
C15_2 C 0.7767(3) 0.4561(10) 0.0651(2)
H10_2 H 0.793583 0.372139 0.081469
C17_2 C 0.9800(4) 0.4755(10) 0.3623(2)
H12_2 H 0.970486 0.375609 0.375458
C18_2 C 0.7853(3) 0.7257(10) 0.0362(2)
H13_2 H 0.808730 0.824637 0.032358
O9_2 O 0.8511(3) 0.4853(12) 0.13603(18)
H15_2 H 0.999529 0.664973 0.080772
C22_2 C 0.9517(3) 0.6332(11) 0.1324(2)
C23_2 C 0.9917(3) 0.6291(12) 0.3014(2)
C26_2 C 0.9796(4) 0.4797(11) 0.3212(2)
H18_2 H 0.971318 0.382167 0.306751
C29_2 C 0.9584(3) 0.6388(11) 0.1730(2)
H19_2 H 0.922955 0.610773 0.189074
C31_2 C 0.8859(3) 0.5785(13) 0.1157(2)
C33_2 C 0.8502(6) 0.1150(16) 0.3626(3)
H23_2 H 0.843915 0.220337 0.376071
H24_2 H 0.813219 0.092768 0.345662
H25_2 H 0.889146 0.120264 0.346752
O13_2 O 0.93323(16) 0.0100(4) 0.51156(11)
O15_2 O 0.99902(19) 0.2561(5) 0.55267(10)
O7_2 O 0.59431(17) 0.6626(5) 0.99485(13)
N1_2 N 0.3564(3) 0.0172(9) 0.89164(17)
H4_2 H 0.395461 0.072160 0.942514
C30_2 C 0.3322(4) 0.1842(11) 0.8821(3)
H20_2 H 0.350997 0.221164 0.857332
H21_2 H 0.285418 0.180949 0.879538
H22_2 H 0.344166 0.260838 0.902982
O1_2 O 0.10355(16) 0.6146(5) 0.50031(11)
O3_3 O 0.49176(19) 0.5326(5) 0.94446(11)
O4_3 O 0.41378(19) 0.8517(6) 0.93340(12)
C1_3 C 0.1249(2) 0.4685(7) 0.50408(16)
C3_3 C 0.1911(3) 0.4449(8) 0.52188(17)
C4_3 C 0.4941(3) 0.3834(8) 0.88383(17)
C5_3 C 0.4961(2) 0.3913(7) 0.92855(16)
C6_3 C 0.8519(2) 0.0319(7) 0.56278(17)
N2_3 N 0.6680(2) 0.1628(8) 0.61106(17)
H1_3 H 0.661977 0.121863 0.634523
C7_3 C 0.7446(3) 0.1556(8) 0.55326(19)
H2_3 H 0.714176 0.206570 0.536527
N3_3 N 0.3699(3) 0.3636(9) 0.58095(18)
H3_3 H 0.397805 0.300302 0.569063
C8_3 C 0.3899(3) 0.9842(9) 0.92453(19)
C9_3 C 0.8057(3) 0.1108(8) 0.53905(18)
H5_3 H 0.816059 0.134646 0.512621
C10_3 C 0.2183(3) 0.5690(8) 0.54520(19)
H6_3 H 0.196940 0.671656 0.547627
C11_3 C 0.8354(3) 0.0032(9) 0.6023(2)
C12_3 C 0.7297(3) 0.1231(9) 0.5928(2)
C13_3 C 0.3097(3) 0.3961(10) 0.5607(2)
O8_3 O 0.6175(3) 0.3119(10) 0.56264(16)
C14_3 C 0.2257(3) 0.2969(9) 0.5168(2)
H8_3 H 0.209034 0.212559 0.500413
N4_3 N 0.4890(3) 0.3738(11) 0.75853(17)
H9_3 H 0.459363 0.436081 0.747873
C15_3 C 0.2767(3) 0.5439(10) 0.5651(2)
H10_3 H 0.293583 0.627861 0.581469
C16_3 C 0.7754(3) 0.0475(11) 0.6172(2)
H11_3 H 0.765535 0.026368 0.643821
C17_3 C 0.4800(4) 0.5245(10) 0.8623(2)
H12_3 H 0.470486 0.624391 0.875458
C18_3 C 0.2853(3) 0.2743(10) 0.5362(2)
H13_3 H 0.308730 0.175363 0.532358
C19_3 C 0.5053(3) 0.2320(9) 0.86409(18)
H14_3 H 0.513060 0.134409 0.878653
O9_3 O 0.3511(3) 0.5147(12) 0.63603(18)
C20_3 C 0.5643(3) 0.2856(10) 0.6256(2)
C21_3 C 0.5039(3) 0.3303(10) 0.60839(19)
H15_3 H 0.499529 0.335027 0.580772
C22_3 C 0.4517(3) 0.3668(11) 0.6324(2)
C23_3 C 0.4917(3) 0.3709(12) 0.8014(2)
C24_3 C 0.5051(4) 0.2271(10) 0.8232(2)
H16_3 H 0.513879 0.126768 0.810017
C25_3 C 0.5692(3) 0.2780(11) 0.6663(2)
H17_3 H 0.608780 0.247273 0.677995
C26_3 C 0.4796(4) 0.5203(11) 0.8212(2)
H18_3 H 0.471318 0.617833 0.806751
C27_3 C 0.6197(3) 0.2534(12) 0.5966(2)
C28_3 C 0.5159(3) 0.3155(11) 0.69040(19)
C29_3 C 0.4584(3) 0.3612(11) 0.6730(2)
H19_3 H 0.422955 0.389227 0.689074
C31_3 C 0.3859(3) 0.4215(13) 0.6157(2)
O10_3 O 0.5671(5) 0.1921(16) 0.7470(2)
C32_3 C 0.5259(4) 0.2940(16) 0.7349(2)
C33_3 C 0.3502(6) 0.8850(16) 0.8626(3)
H23_3 H 0.343915 0.779663 0.876071
H24_3 H 0.313219 0.907232 0.845662
H25_3 H 0.389146 0.879736 0.846752
O11_2 O 0.39645(16) 0.6146(5) 0.99969(11)
O14_2 O 0.55150(17) 0.8765(5) 0.93158(11)
O5_2 O 0.94850(17) 0.8765(5) 0.56842(11)
C2_3 C 0.9148(2) 0.9720(7) 0.54732(17)
H7_3 H 0.865822 0.952637 0.619111
O3_4 O 0.00824(19) 0.5326(5) 0.55554(11)
O4_4 O 0.08622(19) 0.8517(6) 0.56660(12)
C1_4 C 0.3751(2) 0.4685(7) 0.99592(16)
C3_4 C 0.3089(3) 0.4449(8) 0.97812(17)
C4_4 C 0.0059(3) 0.3834(8) 0.61617(17)
C5_4 C 0.0039(2) 0.3913(7) 0.57145(16)
N3_4 N 0.1301(3) 0.3636(9) 0.91905(18)
H3_4 H 0.102195 0.300302 0.930937
C8_4 C 0.1101(3) 0.9842(9) 0.57547(19)
C10_4 C 0.2817(3) 0.5690(8) 0.95480(19)
H6_4 H 0.303060 0.671656 0.952373
C13_4 C 0.1903(3) 0.3961(10) 0.9393(2)
C14_4 C 0.2743(3) 0.2969(9) 0.9832(2)
H8_4 H 0.290966 0.212559 0.999587
N4_4 N 0.0110(3) 0.3738(11) 0.74147(17)
H9_4 H 0.040637 0.436081 0.752127
C15_4 C 0.2233(3) 0.5439(10) 0.9349(2)
H10_4 H 0.206417 0.627861 0.918531
C17_4 C 0.0200(4) 0.5245(10) 0.6377(2)
H12_4 H 0.029514 0.624391 0.624542
C18_4 C 0.2147(3) 0.2743(10) 0.9638(2)
H13_4 H 0.191270 0.175363 0.967642
O9_4 O 0.1489(3) 0.5147(12) 0.86397(18)
H15_4 H 0.000471 0.335027 0.919228
C22_4 C 0.0483(3) 0.3668(11) 0.8676(2)
C23_4 C 0.0083(3) 0.3709(12) 0.6986(2)
C26_4 C 0.0204(4) 0.5203(11) 0.6788(2)
H18_4 H 0.028682 0.617833 0.693249
C29_4 C 0.0416(3) 0.3612(11) 0.8270(2)
H19_4 H 0.077045 0.389227 0.810926
C31_4 C 0.1141(3) 0.4215(13) 0.8843(2)
C33_4 C 0.1498(6) 0.8850(16) 0.6374(3)
H23_4 H 0.156085 0.779663 0.623929
H24_4 H 0.186781 0.907232 0.654338
H25_4 H 0.110854 0.879736 0.653248
C6_4 C 0.6481(2) 0.0319(7) 0.93722(17)
N2_4 N 0.8320(2) 0.1628(8) 0.88894(17)
H1_4 H 0.838023 0.121863 0.865477
C7_4 C 0.7554(3) 0.1556(8) 0.94674(19)
H2_4 H 0.785824 0.206570 0.963473
C9_4 C 0.6943(3) 0.1108(8) 0.96095(18)
H5_4 H 0.683941 0.134646 0.987379
C11_4 C 0.6646(3) 0.0032(9) 0.8977(2)
C12_4 C 0.7703(3) 0.1231(9) 0.9072(2)
O8_4 O 0.8825(3) 0.3119(10) 0.93736(16)
C16_4 C 0.7246(3) 0.0475(11) 0.8828(2)
H11_4 H 0.734465 0.026368 0.856179
C19_4 C 0.9947(3) 0.2320(9) 0.63591(18)
H14_4 H 0.986940 0.134409 0.621347
C20_4 C 0.9357(3) 0.2856(10) 0.8744(2)
C21_4 C 0.9961(3) 0.3303(10) 0.89161(19)
C24_4 C 0.9949(4) 0.2271(10) 0.6768(2)
H16_4 H 0.986121 0.126768 0.689983
C25_4 C 0.9308(3) 0.2780(11) 0.8337(2)
H17_4 H 0.891220 0.247273 0.822005
C27_4 C 0.8803(3) 0.2534(12) 0.9034(2)
C28_4 C 0.9841(3) 0.3155(11) 0.80960(19)
O10_4 O 0.9329(5) 0.1921(16) 0.7530(2)
C32_4 C 0.9741(4) 0.2940(16) 0.7651(2)
C2_4 C 0.5852(2) 0.9720(7) 0.95268(17)
H7_4 H 0.634178 0.952637 0.880889
N1_3 N 0.8564(3) 0.9828(9) 0.39164(17)
H4_3 H 0.895461 0.927840 0.442514
C30_3 C 0.8322(4) 0.8158(11) 0.3821(3)
H20_3 H 0.850997 0.778836 0.357332
H21_3 H 0.785418 0.819051 0.379538
H22_3 H 0.844166 0.739162 0.402982
N1_4 N 0.1436(3) 0.0172(9) 0.60836(17)
H4_4 H 0.104539 0.072160 0.557486
C30_4 C 0.1678(4) 0.1842(11) 0.6179(3)
H20_4 H 0.149003 0.221164 0.642668
H21_4 H 0.214582 0.180949 0.620462
H22_4 H 0.155834 0.260838 0.597018
loop_
_geom_bond_atom_site_label_1
_geom_bond_atom_site_label_2
_geom_bond_site_symmetry_1
_geom_bond_site_symmetry_2
O5 C2 1_555 1_555
Er1 O3 1_555 1_555
O1 C1 1_555 1_555
O3 C5 1_555 1_555
O4 Er1 1_555 1_555
O6 C5 1_555 1_555
O7 C1 1_555 1_555
C1 C3 1_555 1_555
C3 C10 1_555 1_555
C4 C5 1_555 1_555
C6 C9 1_555 1_555
N2 H1 1_555 1_555
C7 H2 1_555 1_555
N3 H3 1_555 1_555
C8 O4 1_555 1_555
C9 C7 1_555 1_555
H5 C9 1_555 1_555
C10 H6 1_555 1_555
C11 C6 1_555 1_555
C12 N2 1_555 1_555
C13 N3 1_555 1_555
O8 C27 1_555 1_555
C14 C3 1_555 1_555
H8 C14 1_555 1_555
N4 H9 1_555 1_555
C15 C10 1_555 1_555
H10 C15 1_555 1_555
C16 C11 1_555 1_555
H11 C16 1_555 1_555
C17 C4 1_555 1_555
H12 C17 1_555 1_555
C18 C13 1_555 1_555
H13 C18 1_555 1_555
C19 C4 1_555 1_555
H14 C19 1_555 1_555
O9 C31 1_555 1_555
C20 C21 1_555 1_555
C21 H15 1_555 1_555
C22 C21 1_555 1_555
C23 N4 1_555 1_555
C24 C19 1_555 1_555
H16 C24 1_555 1_555
C25 C20 1_555 1_555
H17 C25 1_555 1_555
C26 C17 1_555 1_555
H18 C26 1_555 1_555
C27 N2 1_555 1_555
C28 C25 1_555 1_555
C29 C22 1_555 1_555
H19 C29 1_555 1_555
C31 N3 1_555 1_555
O10 C32 1_555 1_555
C32 N4 1_555 1_555
H23 C33 1_555 1_555
H24 C33 1_555 1_555
H25 C33 1_555 1_555
Er3 O1 1_555 1_555
Er6 O2 1_555 1_555
O11 Er1 1_555 1_555
O14 Er1 1_555 1_555
O16 Er1 1_555 1_555
C7 C12 1_555 1_555
C12 C16 1_555 1_555
C13 C15 1_555 1_555
C14 C18 1_555 1_555
C20 C27 1_555 1_555
C22 C31 1_555 1_555
C23 C24 1_555 1_555
C23 C26 1_555 1_555
C28 C29 1_555 1_555
C28 C32 1_555 1_555
C30 N1 1_555 1_555
H20 C30 1_555 1_555
H21 C30 1_555 1_555
H22 C30 1_555 1_555
O14 C2_2 1_555 1_555
C6_2 C9_2 1_555 1_555
N2_2 H1_2 1_555 1_555
C7_2 H2_2 1_555 1_555
C9_2 C7_2 1_555 1_555
H5_2 C9_2 1_555 1_555
C11_2 C6_2 1_555 1_555
C12_2 N2_2 1_555 1_555
O8_2 C27_2 1_555 1_555
C16_2 C11_2 1_555 1_555
H11_2 C16_2 1_555 1_555
H14_2 C19_2 1_555 1_555
C20_2 C21_2 1_555 1_555
C24_2 C19_2 1_555 1_555
H16_2 C24_2 1_555 1_555
C25_2 C20_2 1_555 1_555
H17_2 C25_2 1_555 1_555
C27_2 N2_2 1_555 1_555
C28_2 C25_2 1_555 1_555
O10_2 C32_2 1_555 1_555
Er6 O6_2 1_555 1_555
C7_2 C12_2 1_555 1_555
C12_2 C16_2 1_555 1_555
C20_2 C27_2 1_555 1_555
C28_2 C32_2 1_555 1_555
Er3 O3_2 1_555 1_555
O11 C1_2 1_555 1_555
O3_2 C5_2 1_555 1_555
O4_2 Er3 1_555 1_555
C1_2 C3_2 1_555 1_555
C3_2 C10_2 1_555 1_555
C4_2 C5_2 1_555 1_555
N3_2 H3_2 1_555 1_555
C8_2 O4_2 1_555 1_555
C10_2 H6_2 1_555 1_555
C13_2 N3_2 1_555 1_555
C14_2 C3_2 1_555 1_555
H8_2 C14_2 1_555 1_555
N4_2 H9_2 1_555 1_555
C15_2 C10_2 1_555 1_555
H10_2 C15_2 1_555 1_555
C17_2 C4_2 1_555 1_555
H12_2 C17_2 1_555 1_555
C18_2 C13_2 1_555 1_555
H13_2 C18_2 1_555 1_555
O9_2 C31_2 1_555 1_555
C23_2 N4_2 1_555 1_555
C26_2 C17_2 1_555 1_555
H18_2 C26_2 1_555 1_555
C29_2 C22_2 1_555 1_555
H19_2 C29_2 1_555 1_555
C31_2 N3_2 1_555 1_555
H23_2 C33_2 1_555 1_555
H24_2 C33_2 1_555 1_555
H25_2 C33_2 1_555 1_555
O13_2 Er3 1_555 1_555
O15_2 Er3 1_555 1_555
C13_2 C15_2 1_555 1_555
C14_2 C18_2 1_555 1_555
C22_2 C31_2 1_555 1_555
C23_2 C26_2 1_555 1_555
Er4 O7_2 1_555 1_555
C30_2 N1_2 1_555 1_555
H20_2 C30_2 1_555 1_555
H21_2 C30_2 1_555 1_555
H22_2 C30_2 1_555 1_555
Er4 O3_3 1_555 1_555
O1_2 C1_3 1_555 1_555
O3_3 C5_3 1_555 1_555
O4_3 Er4 1_555 1_555
O15 C5_3 1_555 1_555
O16_2 C1_3 1_555 1_555
C1_3 C3_3 1_555 1_555
C3_3 C10_3 1_555 1_555
C4_3 C5_3 1_555 1_555
C6_3 C9_3 1_555 1_555
N2_3 H1_3 1_555 1_555
C7_3 H2_3 1_555 1_555
N3_3 H3_3 1_555 1_555
C8_3 O4_3 1_555 1_555
C9_3 C7_3 1_555 1_555
H5_3 C9_3 1_555 1_555
C10_3 H6_3 1_555 1_555
C11_3 C6_3 1_555 1_555
C12_3 N2_3 1_555 1_555
C13_3 N3_3 1_555 1_555
O8_3 C27_3 1_555 1_555
C14_3 C3_3 1_555 1_555
H8_3 C14_3 1_555 1_555
N4_3 H9_3 1_555 1_555
C15_3 C10_3 1_555 1_555
H10_3 C15_3 1_555 1_555
C16_3 C11_3 1_555 1_555
H11_3 C16_3 1_555 1_555
C17_3 C4_3 1_555 1_555
H12_3 C17_3 1_555 1_555
C18_3 C13_3 1_555 1_555
H13_3 C18_3 1_555 1_555
C19_3 C4_3 1_555 1_555
H14_3 C19_3 1_555 1_555
O9_3 C31_3 1_555 1_555
C20_3 C21_3 1_555 1_555
C21_3 H15_3 1_555 1_555
C22_3 C21_3 1_555 1_555
C23_3 N4_3 1_555 1_555
C24_3 C19_3 1_555 1_555
H16_3 C24_3 1_555 1_555
C25_3 C20_3 1_555 1_555
H17_3 C25_3 1_555 1_555
C26_3 C17_3 1_555 1_555
H18_3 C26_3 1_555 1_555
C27_3 N2_3 1_555 1_555
C28_3 C25_3 1_555 1_555
C29_3 C22_3 1_555 1_555
H19_3 C29_3 1_555 1_555
C31_3 N3_3 1_555 1_555
O10_3 C32_3 1_555 1_555
C32_3 N4_3 1_555 1_555
H23_3 C33_3 1_555 1_555
H24_3 C33_3 1_555 1_555
H25_3 C33_3 1_555 1_555
Er6 O1_2 1_555 1_555
O11_2 Er4 1_555 1_555
O14_2 Er4 1_555 1_555
C7_3 C12_3 1_555 1_555
C12_3 C16_3 1_555 1_555
C13_3 C15_3 1_555 1_555
C14_3 C18_3 1_555 1_555
C20_3 C27_3 1_555 1_555
C22_3 C31_3 1_555 1_555
C23_3 C24_3 1_555 1_555
C23_3 C26_3 1_555 1_555
C28_3 C29_3 1_555 1_555
C28_3 C32_3 1_555 1_555
O5_2 C2_3 1_555 1_555
Er6 O3_4 1_555 1_555
O11_2 C1_4 1_555 1_555
O3_4 C5_4 1_555 1_555
O4_4 Er6 1_555 1_555
C1_4 C3_4 1_555 1_555
C3_4 C10_4 1_555 1_555
C4_4 C5_4 1_555 1_555
N3_4 H3_4 1_555 1_555
C8_4 O4_4 1_555 1_555
C10_4 H6_4 1_555 1_555
C13_4 N3_4 1_555 1_555
C14_4 C3_4 1_555 1_555
H8_4 C14_4 1_555 1_555
N4_4 H9_4 1_555 1_555
C15_4 C10_4 1_555 1_555
H10_4 C15_4 1_555 1_555
C17_4 C4_4 1_555 1_555
H12_4 C17_4 1_555 1_555
C18_4 C13_4 1_555 1_555
H13_4 C18_4 1_555 1_555
O9_4 C31_4 1_555 1_555
C23_4 N4_4 1_555 1_555
C26_4 C17_4 1_555 1_555
H18_4 C26_4 1_555 1_555
C29_4 C22_4 1_555 1_555
H19_4 C29_4 1_555 1_555
C31_4 N3_4 1_555 1_555
H23_4 C33_4 1_555 1_555
H24_4 C33_4 1_555 1_555
H25_4 C33_4 1_555 1_555
C13_4 C15_4 1_555 1_555
C14_4 C18_4 1_555 1_555
C22_4 C31_4 1_555 1_555
C23_4 C26_4 1_555 1_555
C6_4 C9_4 1_555 1_555
N2_4 H1_4 1_555 1_555
C7_4 H2_4 1_555 1_555
C9_4 C7_4 1_555 1_555
H5_4 C9_4 1_555 1_555
C11_4 C6_4 1_555 1_555
C12_4 N2_4 1_555 1_555
O8_4 C27_4 1_555 1_555
C16_4 C11_4 1_555 1_555
H11_4 C16_4 1_555 1_555
H14_4 C19_4 1_555 1_555
C20_4 C21_4 1_555 1_555
C24_4 C19_4 1_555 1_555
H16_4 C24_4 1_555 1_555
C25_4 C20_4 1_555 1_555
H17_4 C25_4 1_555 1_555
C27_4 N2_4 1_555 1_555
C28_4 C25_4 1_555 1_555
O10_4 C32_4 1_555 1_555
C7_4 C12_4 1_555 1_555
C12_4 C16_4 1_555 1_555
C20_4 C27_4 1_555 1_555
C28_4 C32_4 1_555 1_555
O14_2 C2_4 1_555 1_555
C30_3 N1_3 1_555 1_555
H20_3 C30_3 1_555 1_555
H21_3 C30_3 1_555 1_555
H22_3 C30_3 1_555 1_555
C30_4 N1_4 1_555 1_555
H20_4 C30_4 1_555 1_555
H21_4 C30_4 1_555 1_555
H22_4 C30_4 1_555 1_555

#END
