
###############################################################################
#
# This file contains modified crystal structure data generated from the
# MOF subset of the Cambridge Structural Database (CSD) v542 
# hosted by the Cambridge Crystallographic Data Centre (CCDC).
#
# This work is licensed under the Creative Commons
# Attribution-NonCommercial-ShareAlike 4.0 International License.
# To view a copy of this license, visit
# http://creativecommons.org/licenses/by-nc-sa/4.0/
# or send a letter to
# Creative Commons, PO Box 1866, Mountain View, CA 94042, USA.
#
# CIF created using the CSD Python API on 22 February 2021
# The structure has been converted into the P1 space group
# The structure has a 3D framework
# The original CSD entry GIZTOB is in the monoclinic crystal system
# The framework has been calculated to contain at least 10.0% void space
# The void calculation uses a probe of radius 1.32A, grid spacing 0.4
#
###############################################################################

data_GIZTOB
_chemical_formula_moiety         '(C96 H64 Cd5 O52 Sr6)n'
_symmetry_cell_setting           triclinic
_symmetry_space_group_name_H-M   'P 1'
_symmetry_Int_Tables_number      1
_space_group_name_Hall           'P 1'
loop_
_symmetry_equiv_pos_site_id
_symmetry_equiv_pos_as_xyz
1 x,y,z
_cell_length_a                   26.449(4)
_cell_length_b                   10.5857(6)
_cell_length_c                   20.110(10)
_cell_angle_alpha                90
_cell_angle_beta                 137.124(16)
_cell_angle_gamma                90
_cell_volume                     3831.02
loop_
_atom_site_label
_atom_site_type_symbol
_atom_site_fract_x
_atom_site_fract_y
_atom_site_fract_z
Cd7 Cd 0.46402(2) 0.07489(4) 0.88592(3)
Sr1 Sr 0.0000 0.55247(8) 0.2500
C1 C 0.1626(3) 0.6453(7) 0.5626(5)
C2 C 0.2020(4) 0.6479(8) 0.5412(5)
H1 H 0.1843 0.6040 0.4873
C3 C 0.2669(4) 0.7151(10) 0.5992(6)
H2 H 0.2930 0.7159 0.5845
C4 C 0.2943(4) 0.7825(8) 0.6800(5)
C5 C 0.2564(4) 0.7757(7) 0.7023(5)
H3 H 0.2748 0.8182 0.7571
C6 C 0.1914(4) 0.7074(7) 0.6454(5)
H4 H 0.1669 0.7031 0.6625
C7 C 0.0916(3) 0.5746(6) 0.4986(4)
C8 C 0.3639(4) 0.8597(9) 0.7405(6)
O1 O 0.0565(3) 0.5701(5) 0.5187(3)
O2 O 0.0400(3) 0.2562(6) 0.4786(5)
O3 O 0.0663(2) 0.5191(5) 0.4234(3)
O4 O 0.3846(3) 0.9183(6) 0.8106(4)
O5 O 0.3958(4) 0.8601(9) 0.7166(7)
Cd2 Cd 0.03598(2) 0.42511(4) 0.11408(3)
Cd3 Cd 0.03598(2) 0.57489(4) 0.61408(3)
Sr4 Sr 0.5000 0.94753(8) 0.7500
O16 O 0.0565(3) 0.4299(5) 0.0187(3)
O17 O 0.1154(3) 0.5817(6) 0.1894(4)
O19 O 0.1042(4) 0.6399(9) 0.2834(7)
O21 O 0.1303(3) 0.2956(6) 0.2394(3)
O22 O 0.0704(3) 0.3720(6) 0.2671(3)
Cd6 Cd 0.53598(2) 0.07489(4) 0.61408(3)
Cd1 Cd 0.96402(2) 0.42511(4) 0.38592(3)
Sr1_2 Sr 1.0000 0.55247(8) 0.2500
C9 C 0.8741(4) 0.3182(7) 0.2041(5)
C10 C 0.8097(4) 0.2801(7) 0.0978(5)
C11 C 0.8114(4) 0.3066(8) 0.0320(5)
H5 H 0.8527 0.3457 0.0533
C12 C 0.7482(4) 0.2249(8) 0.0648(5)
H6 H 0.7463 0.2083 0.1084
O6 O 0.8697(3) 0.2956(6) 0.2606(3)
O7 O 0.9296(3) 0.3720(6) 0.2329(3)
H11 H 0.8157 0.6040 0.0127
C23 C 0.9084(3) 0.5746(6) 0.0014(4)
O11 O 0.9600(3) 0.2562(6) 0.0214(5)
O12 O 0.9337(2) 0.5191(5) 0.0766(3)
O15 O 0.9435(3) 0.4299(5) 0.4813(3)
O18 O 0.8846(3) 0.5817(6) 0.3106(4)
O20 O 0.8958(4) 0.6399(9) 0.2166(7)
C13 C 0.6259(4) 0.1818(7) 0.7959(5)
C14 C 0.6903(4) 0.2199(7) 0.9022(5)
C15 C 0.6886(4) 0.1934(8) 0.9680(5)
H9 H 0.6473 0.1543 0.9467
C16 C 0.7518(4) 0.2751(8) 0.9352(5)
H10 H 0.7537 0.2917 0.8916
O8 O 0.6303(3) 0.2044(6) 0.7394(3)
O9 O 0.5704(3) 0.1280(6) 0.7671(3)
C17 C 0.8374(3) 0.6453(7) 0.9374(5)
C18 C 0.7980(4) 0.6479(8) 0.9588(5)
C19 C 0.7331(4) 0.7151(10) 0.9008(6)
H12 H 0.7070 0.7159 0.9155
C20 C 0.7057(4) 0.7825(8) 0.8200(5)
C21 C 0.7436(4) 0.7757(7) 0.7977(5)
H13 H 0.7252 0.8182 0.7429
C22 C 0.8086(4) 0.7074(7) 0.8546(5)
H14 H 0.8331 0.7031 0.8375
C24 C 0.6361(4) 0.8597(9) 0.7595(6)
O10 O 0.9435(3) 0.5701(5) 0.9813(3)
H16 H 0.9626 0.2161 0.9846
O13 O 0.6154(3) 0.9183(6) 0.6894(4)
O14 O 0.6042(4) 0.8601(9) 0.7834(7)
Cd4 Cd 0.96402(2) 0.57489(4) 0.88592(3)
C9_2 C 0.1259(4) 0.3182(7) 0.2959(5)
C10_2 C 0.1903(4) 0.2801(7) 0.4022(5)
C11_2 C 0.1886(4) 0.3066(8) 0.4680(5)
H5_2 H 0.1473 0.3457 0.4467
C12_2 C 0.2518(4) 0.2249(8) 0.4352(5)
H6_2 H 0.2537 0.2083 0.3916
C13_2 C 0.3741(4) 0.1818(7) 0.7041(5)
C14_2 C 0.3097(4) 0.2199(7) 0.5978(5)
C15_2 C 0.3114(4) 0.1934(8) 0.5320(5)
H9_2 H 0.3527 0.1543 0.5533
C16_2 C 0.2482(4) 0.2751(8) 0.5648(5)
H10_2 H 0.2463 0.2917 0.6084
O8_2 O 0.3697(3) 0.2044(6) 0.7606(3)
O9_2 O 0.4296(3) 0.1280(6) 0.7329(3)
Sr4_2 Sr -0.0000 0.44753(8) 0.7500
Sr1_3 Sr 0.5000 0.05247(8) 0.2500
C1_2 C 0.6626(3) 0.1453(7) 0.5626(5)
C2_2 C 0.7020(4) 0.1479(8) 0.5412(5)
H1_2 H 0.6843 0.1040 0.4873
C3_2 C 0.7669(4) 0.2151(10) 0.5992(6)
H2_2 H 0.7930 0.2159 0.5845
C4_2 C 0.7943(4) 0.2825(8) 0.6800(5)
C5_2 C 0.7564(4) 0.2757(7) 0.7023(5)
H3_2 H 0.7748 0.3182 0.7571
C6_2 C 0.6914(4) 0.2074(7) 0.6454(5)
H4_2 H 0.6669 0.2031 0.6625
C7_2 C 0.5916(3) 0.0746(6) 0.4986(4)
C8_2 C 0.8639(4) 0.3597(9) 0.7405(6)
O1_2 O 0.5565(3) 0.0701(5) 0.5187(3)
O3_2 O 0.5663(2) 0.0191(5) 0.4234(3)
O4_2 O 0.8846(3) 0.4183(6) 0.8106(4)
O5_2 O 0.8958(4) 0.3601(9) 0.7166(7)
H11_2 H 0.3157 0.1040 0.0127
C23_2 C 0.4084(3) 0.0746(6) 0.0014(4)
O12_2 O 0.4337(2) 0.0191(5) 0.0766(3)
Sr4_3 Sr 1.0000 0.44753(8) 0.7500
O17_2 O 0.6154(3) 0.0817(6) 0.1894(4)
O18_2 O 0.3846(3) 0.0817(6) 0.3106(4)
O19_2 O 0.6042(4) 0.1399(9) 0.2834(7)
O20_2 O 0.3958(4) 0.1399(9) 0.2166(7)
C17_2 C 0.3374(3) 0.1453(7) 0.9374(5)
C18_2 C 0.2980(4) 0.1479(8) 0.9588(5)
C19_2 C 0.2331(4) 0.2151(10) 0.9008(6)
H12_2 H 0.2070 0.2159 0.9155
C20_2 C 0.2057(4) 0.2825(8) 0.8200(5)
C21_2 C 0.2436(4) 0.2757(7) 0.7977(5)
H13_2 H 0.2252 0.3182 0.7429
C22_2 C 0.3086(4) 0.2074(7) 0.8546(5)
H14_2 H 0.3331 0.2031 0.8375
C24_2 C 0.1361(4) 0.3597(9) 0.7595(6)
O10_2 O 0.4435(3) 0.0701(5) 0.9813(3)
O13_2 O 0.1154(3) 0.4183(6) 0.6894(4)
O14_2 O 0.1042(4) 0.3601(9) 0.7834(7)
Cd1_2 Cd 0.46402(2) 0.92511(4) 0.38592(3)
C9_3 C 0.3741(4) 0.8182(7) 0.2041(5)
C10_3 C 0.3097(4) 0.7801(7) 0.0978(5)
C11_3 C 0.3114(4) 0.8066(8) 0.0320(5)
H5_3 H 0.3527 0.8457 0.0533
C12_3 C 0.2482(4) 0.7249(8) 0.0648(5)
H6_3 H 0.2463 0.7083 0.1084
O2_2 O 0.5400(3) 0.7562(6) 0.4786(5)
O6_2 O 0.3697(3) 0.7956(6) 0.2606(3)
O7_2 O 0.4296(3) 0.8720(6) 0.2329(3)
Cd2_2 Cd 0.53598(2) 0.92511(4) 0.11408(3)
O11_2 O 0.4600(3) 0.7562(6) 0.0214(5)
O15_2 O 0.4435(3) 0.9299(5) 0.4813(3)
O16_2 O 0.5565(3) 0.9299(5) 0.0187(3)
O21_2 O 0.6303(3) 0.7956(6) 0.2394(3)
O22_2 O 0.5704(3) 0.8720(6) 0.2671(3)
C13_3 C 0.1259(4) 0.6818(7) 0.7959(5)
C14_3 C 0.1903(4) 0.7199(7) 0.9022(5)
C15_3 C 0.1886(4) 0.6934(8) 0.9680(5)
H9_3 H 0.1473 0.6543 0.9467
C16_3 C 0.2518(4) 0.7751(8) 0.9352(5)
H10_3 H 0.2537 0.7917 0.8916
O8_3 O 0.1303(3) 0.7044(6) 0.7394(3)
O9_3 O 0.0704(3) 0.6280(6) 0.7671(3)
H16_2 H 0.4626 0.7161 0.9846
C9_4 C 0.6259(4) 0.8182(7) 0.2959(5)
C10_4 C 0.6903(4) 0.7801(7) 0.4022(5)
C11_4 C 0.6886(4) 0.8066(8) 0.4680(5)
H5_4 H 0.6473 0.8457 0.4467
C12_4 C 0.7518(4) 0.7249(8) 0.4352(5)
H6_4 H 0.7537 0.7083 0.3916
C13_4 C 0.8741(4) 0.6818(7) 0.7041(5)
C14_4 C 0.8097(4) 0.7199(7) 0.5978(5)
C15_4 C 0.8114(4) 0.6934(8) 0.5320(5)
H9_4 H 0.8527 0.6543 0.5533
C16_4 C 0.7482(4) 0.7751(8) 0.5648(5)
H10_4 H 0.7463 0.7917 0.6084
O8_4 O 0.8697(3) 0.7044(6) 0.7606(3)
O9_4 O 0.9296(3) 0.6280(6) 0.7329(3)
C17_3 C 0.1626(3) 0.3547(7) 0.0626(5)
C18_3 C 0.2020(4) 0.3521(8) 0.0412(5)
C19_3 C 0.2669(4) 0.2849(10) 0.0992(6)
H12_3 H 0.2930 0.2841 0.0845
C20_3 C 0.2943(4) 0.2175(8) 0.1800(5)
C21_3 C 0.2564(4) 0.2243(7) 0.2023(5)
H13_3 H 0.2748 0.1818 0.2571
C22_3 C 0.1914(4) 0.2926(7) 0.1454(5)
H14_3 H 0.1669 0.2969 0.1625
C24_3 C 0.3639(4) 0.1403(9) 0.2405(6)
H16_3 H 0.0374 0.7839 0.0154
H11_3 H 0.1843 0.3960 0.9873
C23_3 C 0.0916(3) 0.4254(6) 0.9986(4)
O11_3 O 0.0400(3) 0.7438(6) 0.9786(5)
O12_3 O 0.0663(2) 0.4809(5) 0.9234(3)
C1_3 C 0.8374(3) 0.3547(7) 0.4374(5)
C2_3 C 0.7980(4) 0.3521(8) 0.4588(5)
H1_3 H 0.8157 0.3960 0.5127
C3_3 C 0.7331(4) 0.2849(10) 0.4008(6)
H2_3 H 0.7070 0.2841 0.4155
C4_3 C 0.7057(4) 0.2175(8) 0.3200(5)
C5_3 C 0.7436(4) 0.2243(7) 0.2977(5)
H3_3 H 0.7252 0.1818 0.2429
C6_3 C 0.8086(4) 0.2926(7) 0.3546(5)
H4_3 H 0.8331 0.2969 0.3375
C7_3 C 0.9084(3) 0.4254(6) 0.5014(4)
C8_3 C 0.6361(4) 0.1403(9) 0.2595(6)
O2_3 O 0.9600(3) 0.7438(6) 0.5214(5)
O3_3 O 0.9337(2) 0.4809(5) 0.5766(3)
H16_4 H 0.5374 0.2839 0.0154
O2_4 O 0.4600(3) 0.2438(6) 0.5214(5)
O11_4 O 0.5400(3) 0.2438(6) 0.9786(5)
C17_4 C 0.6626(3) 0.8547(7) 0.0626(5)
C18_4 C 0.7020(4) 0.8521(8) 0.0412(5)
C19_4 C 0.7669(4) 0.7849(10) 0.0992(6)
H12_4 H 0.7930 0.7841 0.0845
C20_4 C 0.7943(4) 0.7175(8) 0.1800(5)
C21_4 C 0.7564(4) 0.7243(7) 0.2023(5)
H13_4 H 0.7748 0.6818 0.2571
C22_4 C 0.6914(4) 0.7926(7) 0.1454(5)
H14_4 H 0.6669 0.7969 0.1625
C24_4 C 0.8639(4) 0.6403(9) 0.2405(6)
C1_4 C 0.3374(3) 0.8547(7) 0.4374(5)
C2_4 C 0.2980(4) 0.8521(8) 0.4588(5)
H1_4 H 0.3157 0.8960 0.5127
C3_4 C 0.2331(4) 0.7849(10) 0.4008(6)
H2_4 H 0.2070 0.7841 0.4155
C4_4 C 0.2057(4) 0.7175(8) 0.3200(5)
C5_4 C 0.2436(4) 0.7243(7) 0.2977(5)
H3_4 H 0.2252 0.6818 0.2429
C6_4 C 0.3086(4) 0.7926(7) 0.3546(5)
H4_4 H 0.3331 0.7969 0.3375
C7_4 C 0.4084(3) 0.9254(6) 0.5014(4)
C8_4 C 0.1361(4) 0.6403(9) 0.2595(6)
O3_4 O 0.4337(2) 0.9809(5) 0.5766(3)
H11_4 H 0.6843 0.8960 0.9873
C23_4 C 0.5916(3) 0.9254(6) 0.9986(4)
O12_4 O 0.5663(2) 0.9809(5) 0.9234(3)
loop_
_geom_bond_atom_site_label_1
_geom_bond_atom_site_label_2
_geom_bond_site_symmetry_1
_geom_bond_site_symmetry_2
Sr1 O3 1_555 1_555
C1 C2 1_555 1_555
C2 H1 1_555 1_555
C3 C2 1_555 1_555
H2 C3 1_555 1_555
C4 C3 1_555 1_555
C5 C4 1_555 1_555
H3 C5 1_555 1_555
C6 C1 1_555 1_555
H4 C6 1_555 1_555
C7 C1 1_555 1_555
C8 C4 1_555 1_555
O1 C7 1_555 1_555
O4 C8 1_555 1_555
O5 C8 1_555 1_555
Cd3 O1 1_555 1_555
Sr4 O5 1_555 1_555
O16 Cd2 1_555 1_555
O17 Cd2 1_555 1_555
O19 Sr1 1_555 1_555
O21 Cd2 1_555 1_555
O22 Sr1 1_555 1_555
C5 C6 1_555 1_555
C7 O3 1_555 1_555
Cd2 O22 1_555 1_555
C9 C10 1_555 1_555
C10 C11 1_555 1_555
C11 H5 1_555 1_555
C12 C10 1_555 1_555
H6 C12 1_555 1_555
O6 Cd1 1_555 1_555
O7 Cd1 1_555 1_555
O12 Sr1_2 1_555 1_555
O15 Cd1 1_555 1_555
O18 Cd1 1_555 1_555
O20 Sr1_2 1_555 1_555
Sr1_2 O7 1_555 1_555
C9 O6 1_555 1_555
C9 O7 1_555 1_555
C23 O12 1_555 1_555
C13 C14 1_555 1_555
C14 C15 1_555 1_555
H9 C15 1_555 1_555
H10 C16 1_555 1_555
O8 C13 1_555 1_555
O9 C13 1_555 1_555
C17 C18 1_555 1_555
C19 C18 1_555 1_555
H12 C19 1_555 1_555
C20 C19 1_555 1_555
C21 C20 1_555 1_555
H13 C21 1_555 1_555
C22 C17 1_555 1_555
H14 C22 1_555 1_555
C24 C20 1_555 1_555
O13 C24 1_555 1_555
O14 C24 1_555 1_555
Cd4 O10 1_555 1_555
Cd6 O8 1_555 1_555
Sr4 O14 1_555 1_555
C14 C16 1_555 1_555
O9 Cd6 1_555 1_555
C21 C22 1_555 1_555
C9_2 C10_2 1_555 1_555
C10_2 C11_2 1_555 1_555
C11_2 H5_2 1_555 1_555
C12_2 C10_2 1_555 1_555
H6_2 C12_2 1_555 1_555
C13_2 C14_2 1_555 1_555
C14_2 C15_2 1_555 1_555
C15_2 C12_2 1_555 1_555
H9_2 C15_2 1_555 1_555
C16_2 C11_2 1_555 1_555
H10_2 C16_2 1_555 1_555
O8_2 C13_2 1_555 1_555
O9_2 C13_2 1_555 1_555
Cd7 O8_2 1_555 1_555
C9_2 O21 1_555 1_555
C9_2 O22 1_555 1_555
C14_2 C16_2 1_555 1_555
O9_2 Cd7 1_555 1_555
Sr1_3 O3_2 1_555 1_555
C1_2 C2_2 1_555 1_555
C2_2 H1_2 1_555 1_555
C3_2 C2_2 1_555 1_555
H2_2 C3_2 1_555 1_555
C4_2 C3_2 1_555 1_555
C5_2 C4_2 1_555 1_555
H3_2 C5_2 1_555 1_555
C6_2 C1_2 1_555 1_555
H4_2 C6_2 1_555 1_555
C7_2 C1_2 1_555 1_555
C8_2 C4_2 1_555 1_555
O1_2 C7_2 1_555 1_555
O4_2 C8_2 1_555 1_555
O5_2 C8_2 1_555 1_555
O12_2 Sr1_3 1_555 1_555
Cd6 O1_2 1_555 1_555
Cd4 O4_2 1_555 1_555
Sr4_3 O5_2 1_555 1_555
O19_2 Sr1_3 1_555 1_555
O20_2 Sr1_3 1_555 1_555
C5_2 C6_2 1_555 1_555
C7_2 O3_2 1_555 1_555
C23_2 O12_2 1_555 1_555
C17_2 C18_2 1_555 1_555
C19_2 C18_2 1_555 1_555
H12_2 C19_2 1_555 1_555
C20_2 C19_2 1_555 1_555
C21_2 C20_2 1_555 1_555
H13_2 C21_2 1_555 1_555
C22_2 C17_2 1_555 1_555
H14_2 C22_2 1_555 1_555
C24_2 C20_2 1_555 1_555
O13_2 C24_2 1_555 1_555
O14_2 C24_2 1_555 1_555
Cd7 O10_2 1_555 1_555
Cd3 O13_2 1_555 1_555
Sr4_2 O14_2 1_555 1_555
C21_2 C22_2 1_555 1_555
C9_3 C10_3 1_555 1_555
C10_3 C11_3 1_555 1_555
C11_3 H5_3 1_555 1_555
C12_3 C10_3 1_555 1_555
H6_3 C12_3 1_555 1_555
O2_2 Cd1_2 1_555 1_555
O6_2 Cd1_2 1_555 1_555
O7_2 Cd1_2 1_555 1_555
O11_2 Cd2_2 1_555 1_555
O15_2 Cd1_2 1_555 1_555
O16_2 Cd2_2 1_555 1_555
O21_2 Cd2_2 1_555 1_555
C9_3 O6_2 1_555 1_555
C9_3 O7_2 1_555 1_555
Cd2_2 O22_2 1_555 1_555
C13_3 C14_3 1_555 1_555
C14_3 C15_3 1_555 1_555
H9_3 C15_3 1_555 1_555
H10_3 C16_3 1_555 1_555
O8_3 C13_3 1_555 1_555
O9_3 C13_3 1_555 1_555
Cd3 O8_3 1_555 1_555
Sr4_2 O9_3 1_555 1_555
C14_3 C16_3 1_555 1_555
O9_3 Cd3 1_555 1_555
C9_4 C10_4 1_555 1_555
C10_4 C11_4 1_555 1_555
C11_4 H5_4 1_555 1_555
C12_4 C10_4 1_555 1_555
H6_4 C12_4 1_555 1_555
C13_4 C14_4 1_555 1_555
C14_4 C15_4 1_555 1_555
C15_4 C12_4 1_555 1_555
H9_4 C15_4 1_555 1_555
C16_4 C11_4 1_555 1_555
H10_4 C16_4 1_555 1_555
O8_4 C13_4 1_555 1_555
O9_4 C13_4 1_555 1_555
Cd4 O8_4 1_555 1_555
Sr4_3 O9_4 1_555 1_555
C9_4 O21_2 1_555 1_555
C9_4 O22_2 1_555 1_555
C14_4 C16_4 1_555 1_555
O9_4 Cd4 1_555 1_555
C17_3 C18_3 1_555 1_555
C19_3 C18_3 1_555 1_555
H12_3 C19_3 1_555 1_555
C20_3 C19_3 1_555 1_555
C21_3 C20_3 1_555 1_555
H13_3 C21_3 1_555 1_555
C22_3 C17_3 1_555 1_555
H14_3 C22_3 1_555 1_555
C24_3 C20_3 1_555 1_555
O18_2 C24_3 1_555 1_555
O20_2 C24_3 1_555 1_555
C21_3 C22_3 1_555 1_555
O12_3 Sr4_2 1_555 1_555
C23_3 O12_3 1_555 1_555
Sr4_3 O3_3 1_555 1_555
C1_3 C2_3 1_555 1_555
C2_3 H1_3 1_555 1_555
C3_3 C2_3 1_555 1_555
H2_3 C3_3 1_555 1_555
C4_3 C3_3 1_555 1_555
C5_3 C4_3 1_555 1_555
H3_3 C5_3 1_555 1_555
C6_3 C1_3 1_555 1_555
H4_3 C6_3 1_555 1_555
C7_3 C1_3 1_555 1_555
C8_3 C4_3 1_555 1_555
O15 C7_3 1_555 1_555
O17_2 C8_3 1_555 1_555
O19_2 C8_3 1_555 1_555
C5_3 C6_3 1_555 1_555
C7_3 O3_3 1_555 1_555
O2_4 Cd6 1_555 1_555
O11_4 Cd7 1_555 1_555
C17_4 C18_4 1_555 1_555
C19_4 C18_4 1_555 1_555
H12_4 C19_4 1_555 1_555
C20_4 C19_4 1_555 1_555
C21_4 C20_4 1_555 1_555
H13_4 C21_4 1_555 1_555
C22_4 C17_4 1_555 1_555
H14_4 C22_4 1_555 1_555
C24_4 C20_4 1_555 1_555
O18 C24_4 1_555 1_555
O20 C24_4 1_555 1_555
C21_4 C22_4 1_555 1_555
Sr4 O3_4 1_555 1_555
C1_4 C2_4 1_555 1_555
C2_4 H1_4 1_555 1_555
C3_4 C2_4 1_555 1_555
H2_4 C3_4 1_555 1_555
C4_4 C3_4 1_555 1_555
C5_4 C4_4 1_555 1_555
H3_4 C5_4 1_555 1_555
C6_4 C1_4 1_555 1_555
H4_4 C6_4 1_555 1_555
C7_4 C1_4 1_555 1_555
C8_4 C4_4 1_555 1_555
O15_2 C7_4 1_555 1_555
O17 C8_4 1_555 1_555
O19 C8_4 1_555 1_555
O12_4 Sr4 1_555 1_555
C5_4 C6_4 1_555 1_555
C7_4 O3_4 1_555 1_555
C23_4 O12_4 1_555 1_555

#END
