
###############################################################################
#
# This file contains modified crystal structure data generated from the
# MOF subset of the Cambridge Structural Database (CSD) v542 
# hosted by the Cambridge Crystallographic Data Centre (CCDC).
#
# This work is licensed under the Creative Commons
# Attribution-NonCommercial-ShareAlike 4.0 International License.
# To view a copy of this license, visit
# http://creativecommons.org/licenses/by-nc-sa/4.0/
# or send a letter to
# Creative Commons, PO Box 1866, Mountain View, CA 94042, USA.
#
# CIF created using the CSD Python API on 22 February 2021
# The structure has been converted into the P1 space group
# The structure has a 3D framework
# The original CSD entry GOWXUO is in the monoclinic crystal system
# The framework has been calculated to contain at least 10.0% void space
# The void calculation uses a probe of radius 1.32A, grid spacing 0.4
#
###############################################################################

data_GOWXUO
_chemical_formula_moiety         '(C44 H24 N8 O16 Zn2)n'
_symmetry_cell_setting           triclinic
_symmetry_space_group_name_H-M   'P 1'
_symmetry_Int_Tables_number      1
_space_group_name_Hall           'P 1'
loop_
_symmetry_equiv_pos_site_id
_symmetry_equiv_pos_as_xyz
1 x,y,z
_cell_length_a                   11.021(2)
_cell_length_b                   12.014(2)
_cell_length_c                   14.4126(15)
_cell_angle_alpha                90
_cell_angle_beta                 108.963(3)
_cell_angle_gamma                90
_cell_volume                     1804.75
loop_
_atom_site_label
_atom_site_type_symbol
_atom_site_fract_x
_atom_site_fract_y
_atom_site_fract_z
O5 O 0.0062(2) 0.1488(2) 0.09668(19)
O7 O 0.0094(2) 0.1465(2) 0.9066(2)
Zn4 Zn 0.09956(3) 0.92606(3) 0.02466(3)
Zn3 Zn 0.09956(3) 0.57394(3) 0.52466(3)
Zn1 Zn 0.90044(3) 0.07394(3) 0.97534(3)
N3 N 0.7380(3) 0.1854(3) 0.9324(2)
O6 O 0.8253(3) 0.9756(2) 0.0513(2)
O1 O 0.8270(3) 0.9723(2) 0.86464(19)
O2 O 0.9938(2) 0.8512(2) 0.90332(19)
O3 O 0.8253(3) 0.5244(2) 0.5513(2)
O4 O 0.9906(2) 0.6465(2) 0.5934(2)
N1 N 0.2620(3) 0.6854(3) 0.5676(2)
N2 N 0.4660(3) 0.7466(3) 0.6215(2)
C1 C 0.8819(3) 0.6111(3) 0.5921(2)
C2 C 0.8830(3) 0.8858(3) 0.8512(2)
C3 C 0.6727(4) 0.6776(4) 0.6120(3)
H1 H 0.628162 0.628999 0.562352
C4 C 0.8782(3) 0.7479(3) 0.7210(2)
H2 H 0.967420 0.747862 0.742693
C5 C 0.3858(3) 0.6568(3) 0.5930(3)
H3 H 0.414282 0.584155 0.591570
C6 C 0.8095(3) 0.8158(3) 0.7655(3)
C7 C 0.6059(3) 0.7469(3) 0.6550(3)
C8 C 0.8084(3) 0.6804(3) 0.6432(3)
C9 C 0.3865(4) 0.8361(4) 0.6182(5)
H4 H 0.412131 0.908768 0.636897
C10 C 0.6741(4) 0.8161(4) 0.7335(3)
H5 H 0.630236 0.861636 0.764056
C11 C 0.2621(4) 0.7979(4) 0.5822(5)
H6 H 0.189213 0.841999 0.569702
Zn5 Zn 0.90044(3) 0.42606(3) 0.47534(3)
O1_2 O 0.1730(3) 0.4723(2) 0.63536(19)
O2_2 O 0.0062(2) 0.3512(2) 0.59668(19)
O3_2 O 0.1747(3) 0.0244(2) 0.9487(2)
N2_2 N 0.5340(3) 0.2466(3) 0.8785(2)
C1_2 C 0.1181(3) 0.1111(3) 0.9079(2)
C2_2 C 0.1170(3) 0.3858(3) 0.6488(2)
C3_2 C 0.3273(4) 0.1776(4) 0.8880(3)
H1_2 H 0.371838 0.128999 0.937648
C4_2 C 0.1218(3) 0.2479(3) 0.7790(2)
H2_2 H 0.032580 0.247862 0.757307
C5_2 C 0.6142(3) 0.1568(3) 0.9070(3)
H3_2 H 0.585718 0.084155 0.908430
C6_2 C 0.1905(3) 0.3158(3) 0.7345(3)
C7_2 C 0.3941(3) 0.2469(3) 0.8450(3)
C8_2 C 0.1916(3) 0.1804(3) 0.8568(3)
C9_2 C 0.6135(4) 0.3361(4) 0.8818(5)
H4_2 H 0.587869 0.408768 0.863103
C10_2 C 0.3259(4) 0.3161(4) 0.7665(3)
H5_2 H 0.369764 0.361636 0.735944
C11_2 C 0.7379(4) 0.2979(4) 0.9178(5)
H6_2 H 0.810787 0.341999 0.930298
O6_2 O 0.1747(3) 0.4756(2) 0.4487(2)
O5_2 O 0.9938(2) 0.6488(2) 0.40332(19)
O1_3 O 0.1730(3) 0.0277(2) 0.13536(19)
O4_2 O 0.0094(2) 0.3535(2) 0.4066(2)
N1_2 N 0.7380(3) 0.3146(3) 0.4324(2)
N2_3 N 0.5340(3) 0.2534(3) 0.3785(2)
C1_3 C 0.1181(3) 0.3889(3) 0.4079(2)
C2_3 C 0.1170(3) 0.1142(3) 0.1488(2)
C3_3 C 0.3273(4) 0.3224(4) 0.3880(3)
H1_3 H 0.371838 0.371001 0.437648
C4_3 C 0.1218(3) 0.2521(3) 0.2790(2)
H2_3 H 0.032580 0.252138 0.257307
C5_3 C 0.6142(3) 0.3432(3) 0.4070(3)
H3_3 H 0.585718 0.415845 0.408430
C6_3 C 0.1905(3) 0.1842(3) 0.2345(3)
C7_3 C 0.3941(3) 0.2531(3) 0.3450(3)
C8_3 C 0.1916(3) 0.3196(3) 0.3568(3)
C9_3 C 0.6135(4) 0.1639(4) 0.3818(5)
H4_3 H 0.587869 0.091232 0.363103
C10_3 C 0.3259(4) 0.1839(4) 0.2665(3)
H5_3 H 0.369764 0.138364 0.235944
C11_3 C 0.7379(4) 0.2021(4) 0.4178(5)
H6_3 H 0.810787 0.158001 0.430298
N3_2 N 0.2620(3) 0.8146(3) 0.0676(2)
O7_2 O 0.9906(2) 0.8535(2) 0.0934(2)
O1_4 O 0.8270(3) 0.5277(2) 0.36464(19)
N2_4 N 0.4660(3) 0.7534(3) 0.1215(2)
C1_4 C 0.8819(3) 0.8889(3) 0.0921(2)
C2_4 C 0.8830(3) 0.6142(3) 0.3512(2)
C3_4 C 0.6727(4) 0.8224(4) 0.1120(3)
H1_4 H 0.628162 0.871001 0.062352
C4_4 C 0.8782(3) 0.7521(3) 0.2210(2)
H2_4 H 0.967420 0.752138 0.242693
C5_4 C 0.3858(3) 0.8432(3) 0.0930(3)
H3_4 H 0.414282 0.915845 0.091570
C6_4 C 0.8095(3) 0.6842(3) 0.2655(3)
C7_4 C 0.6059(3) 0.7531(3) 0.1550(3)
C8_4 C 0.8084(3) 0.8196(3) 0.1432(3)
C9_4 C 0.3865(4) 0.6639(4) 0.1182(5)
H4_4 H 0.412131 0.591232 0.136897
C10_4 C 0.6741(4) 0.6839(4) 0.2335(3)
H5_4 H 0.630236 0.638364 0.264056
C11_4 C 0.2621(4) 0.7021(4) 0.0822(5)
H6_4 H 0.189213 0.658001 0.069702
loop_
_geom_bond_atom_site_label_1
_geom_bond_atom_site_label_2
_geom_bond_site_symmetry_1
_geom_bond_site_symmetry_2
N3 Zn1 1_555 1_555
O1 C2 1_555 1_555
O2 C2 1_555 1_555
O3 C1 1_555 1_555
O4 C1 1_555 1_555
N1 C5 1_555 1_555
N2 C5 1_555 1_555
C1 C8 1_555 1_555
C2 C6 1_555 1_555
C3 H1 1_555 1_555
C4 H2 1_555 1_555
C5 H3 1_555 1_555
C6 C4 1_555 1_555
C7 N2 1_555 1_555
C8 C3 1_555 1_555
C9 N2 1_555 1_555
H4 C9 1_555 1_555
C10 C6 1_555 1_555
H5 C10 1_555 1_555
C11 N1 1_555 1_555
H6 C11 1_555 1_555
Zn3 N1 1_555 1_555
Zn5 O3 1_555 1_555
C3 C7 1_555 1_555
C4 C8 1_555 1_555
C7 C10 1_555 1_555
C9 C11 1_555 1_555
Zn3 O1_2 1_555 1_555
O1_2 C2_2 1_555 1_555
O2_2 C2_2 1_555 1_555
O3_2 C1_2 1_555 1_555
O7 C1_2 1_555 1_555
N3 C5_2 1_555 1_555
N2_2 C5_2 1_555 1_555
C1_2 C8_2 1_555 1_555
C2_2 C6_2 1_555 1_555
C3_2 H1_2 1_555 1_555
C4_2 H2_2 1_555 1_555
C5_2 H3_2 1_555 1_555
C6_2 C4_2 1_555 1_555
C7_2 N2_2 1_555 1_555
C8_2 C3_2 1_555 1_555
C9_2 N2_2 1_555 1_555
H4_2 C9_2 1_555 1_555
C10_2 C6_2 1_555 1_555
H5_2 C10_2 1_555 1_555
C11_2 N3 1_555 1_555
H6_2 C11_2 1_555 1_555
O6_2 Zn3 1_555 1_555
C3_2 C7_2 1_555 1_555
C4_2 C8_2 1_555 1_555
C7_2 C10_2 1_555 1_555
C9_2 C11_2 1_555 1_555
O1_3 C2_3 1_555 1_555
O5 C2_3 1_555 1_555
O6_2 C1_3 1_555 1_555
O4_2 C1_3 1_555 1_555
N1_2 C5_3 1_555 1_555
N2_3 C5_3 1_555 1_555
C1_3 C8_3 1_555 1_555
C2_3 C6_3 1_555 1_555
C3_3 H1_3 1_555 1_555
C4_3 H2_3 1_555 1_555
C5_3 H3_3 1_555 1_555
C6_3 C4_3 1_555 1_555
C7_3 N2_3 1_555 1_555
C8_3 C3_3 1_555 1_555
C9_3 N2_3 1_555 1_555
H4_3 C9_3 1_555 1_555
C10_3 C6_3 1_555 1_555
H5_3 C10_3 1_555 1_555
C11_3 N1_2 1_555 1_555
H6_3 C11_3 1_555 1_555
Zn5 N1_2 1_555 1_555
C3_3 C7_3 1_555 1_555
C4_3 C8_3 1_555 1_555
C7_3 C10_3 1_555 1_555
C9_3 C11_3 1_555 1_555
N3_2 Zn4 1_555 1_555
Zn5 O1_4 1_555 1_555
O1_4 C2_4 1_555 1_555
O5_2 C2_4 1_555 1_555
O6 C1_4 1_555 1_555
O7_2 C1_4 1_555 1_555
N3_2 C5_4 1_555 1_555
N2_4 C5_4 1_555 1_555
C1_4 C8_4 1_555 1_555
C2_4 C6_4 1_555 1_555
C3_4 H1_4 1_555 1_555
C4_4 H2_4 1_555 1_555
C5_4 H3_4 1_555 1_555
C6_4 C4_4 1_555 1_555
C7_4 N2_4 1_555 1_555
C8_4 C3_4 1_555 1_555
C9_4 N2_4 1_555 1_555
H4_4 C9_4 1_555 1_555
C10_4 C6_4 1_555 1_555
H5_4 C10_4 1_555 1_555
C11_4 N3_2 1_555 1_555
H6_4 C11_4 1_555 1_555
C3_4 C7_4 1_555 1_555
C4_4 C8_4 1_555 1_555
C7_4 C10_4 1_555 1_555
C9_4 C11_4 1_555 1_555

#END
