
###############################################################################
#
# This file contains modified crystal structure data generated from the
# MOF subset of the Cambridge Structural Database (CSD) v542 
# hosted by the Cambridge Crystallographic Data Centre (CCDC).
#
# This work is licensed under the Creative Commons
# Attribution-NonCommercial-ShareAlike 4.0 International License.
# To view a copy of this license, visit
# http://creativecommons.org/licenses/by-nc-sa/4.0/
# or send a letter to
# Creative Commons, PO Box 1866, Mountain View, CA 94042, USA.
#
# CIF created using the CSD Python API on 22 February 2021
# The structure has been converted into the P1 space group
# The structure has a 3D framework
# The original CSD entry GOYQOD is in the monoclinic crystal system
# The framework has been calculated to contain at least 10.0% void space
# The void calculation uses a probe of radius 1.32A, grid spacing 0.4
#
###############################################################################

data_GOYQOD
_chemical_formula_moiety         '(C76 H48 Cu4 N8 O20)n'
_symmetry_cell_setting           triclinic
_symmetry_space_group_name_H-M   'P 1'
_symmetry_Int_Tables_number      1
_space_group_name_Hall           'P 1'
loop_
_symmetry_equiv_pos_site_id
_symmetry_equiv_pos_as_xyz
1 x,y,z
_cell_length_a                   9.963(3)
_cell_length_b                   9.932(3)
_cell_length_c                   22.661(4)
_cell_angle_alpha                90
_cell_angle_beta                 94.02(3)
_cell_angle_gamma                90
_cell_volume                     2236.85
loop_
_atom_site_label
_atom_site_type_symbol
_atom_site_fract_x
_atom_site_fract_y
_atom_site_fract_z
Cu5 Cu 0.06222(6) 0.87956(6) 0.01152(3)
O1 O 0.7808(3) 0.0245(4) 0.02102(16)
H2 H 0.552252 0.011367 0.052261
O2 O 0.1123(4) 0.9611(4) 0.09023(15)
N1 N 0.1506(4) 0.6923(4) 0.02481(17)
C5 C 0.2694(5) 0.6708(5) 0.0046(2)
C7 C 0.3382(5) 0.5502(5) 0.0134(2)
C8 C 0.0966(5) 0.5914(5) 0.0530(3)
H3 H 0.013220 0.605104 0.068085
C14 C 0.1579(6) 0.4647(6) 0.0615(3)
H8 H 0.113860 0.396087 0.080372
C16 C 0.2792(6) 0.4439(6) 0.0424(3)
H10 H 0.323112 0.361819 0.048191
H12 H 0.219200 0.963161 0.191564
N4 N 0.5348(5) 0.4515(5) 0.0093(2)
H13 H 0.691307 0.260896 0.016289
Cu8 Cu 0.93778(6) 0.12044(6) 0.98848(3)
O6 O 0.2192(3) 0.9755(4) 0.97898(16)
H17 H 0.447748 0.988633 0.947739
N2 N 0.4652(5) 0.5485(5) 0.9907(2)
H1 H 0.308693 0.739104 0.983711
N3 N 0.8494(4) 0.3077(4) 0.97519(17)
C20 C 0.7306(5) 0.3292(5) 0.9954(2)
C21 C 0.6618(5) 0.4498(5) 0.9866(2)
C22 C 0.9034(5) 0.4086(5) 0.9470(3)
H14 H 0.986780 0.394896 0.931915
C23 C 0.8421(6) 0.5353(6) 0.9385(3)
H15 H 0.886140 0.603913 0.919628
C24 C 0.7208(6) 0.5561(6) 0.9576(3)
H16 H 0.676888 0.638181 0.951809
O7 O 0.8877(4) 0.0389(4) 0.90977(15)
H24 H 0.780800 0.036839 0.808436
Cu1 Cu 0.43778(6) 0.37956(6) 0.48848(3)
O2_2 O 0.3877(4) 0.4611(4) 0.40977(15)
O3 O 0.8857(4) 0.8284(4) 0.04074(17)
O4 O 0.4943(4) 0.6559(4) 0.42750(15)
N1_2 N 0.3494(4) 0.1923(4) 0.47519(17)
O5 O 0.3496(4) 0.7134(5) 0.15597(15)
C1 C 0.7876(5) 0.9058(5) 0.0421(2)
C2 C 0.6710(5) 0.8540(5) 0.0716(2)
N2_2 N 0.0348(5) 0.0485(5) 0.5093(2)
C3 C 0.4300(5) 0.5744(5) 0.3950(2)
C4 C 0.4018(5) 0.6147(5) 0.3315(2)
C5_2 C 0.2306(5) 0.1708(5) 0.4954(2)
H1_2 H 0.191307 0.239104 0.516289
C6 C 0.5563(5) 0.9283(6) 0.0712(2)
C7_2 C 0.1618(5) 0.0502(5) 0.4866(2)
C8_2 C 0.4034(5) 0.0914(5) 0.4470(3)
H3_2 H 0.486780 0.105104 0.431915
C9 C 0.4464(5) 0.8821(6) 0.0985(2)
H4 H 0.366227 0.930304 0.096670
C10 C 0.6787(5) 0.7309(6) 0.1020(2)
H5 H 0.756922 0.679790 0.101931
C11 C 0.3701(5) 0.6845(6) 0.2154(2)
C12 C 0.5737(6) 0.6853(6) 0.1313(2)
H6 H 0.579554 0.604961 0.152470
C13 C 0.4465(6) 0.7629(6) 0.2518(2)
H7 H 0.486429 0.839471 0.237203
C15 C 0.4664(6) 0.7311(6) 0.3109(2)
H9 H 0.520543 0.784344 0.336546
C17 C 0.3059(6) 0.5699(8) 0.2351(2)
H11 H 0.252763 0.516541 0.209025
C18 C 0.4591(5) 0.7610(6) 0.1289(2)
C19 C 0.3236(6) 0.5384(6) 0.2941(2)
H12_2 H 0.280800 0.463161 0.308436
Cu6 Cu 0.56222(6) 0.62044(6) 0.51152(3)
O12 O 0.2808(3) 0.4755(4) 0.52102(16)
O13 O 0.6143(4) 0.3284(4) 0.45926(17)
O16 O 0.5057(4) 0.3441(4) 0.57250(15)
N3_2 N 0.6506(4) 0.8077(4) 0.52481(17)
N4_2 N 0.9652(5) 0.9515(5) 0.4907(2)
C20_2 C 0.7694(5) 0.8292(5) 0.5046(2)
H13_2 H 0.808693 0.760896 0.483711
C21_2 C 0.8382(5) 0.9498(5) 0.5134(2)
C22_2 C 0.5966(5) 0.9086(5) 0.5530(3)
H14_2 H 0.513220 0.894896 0.568085
O7_2 O 0.6123(4) 0.5389(4) 0.59023(15)
O8 O 0.1143(4) 0.1716(4) 0.95926(17)
O10 O 0.6504(4) 0.2866(5) 0.84403(15)
C25 C 0.2124(5) 0.0942(5) 0.9579(2)
C26 C 0.3290(5) 0.1460(5) 0.9284(2)
C27 C 0.5700(5) 0.4256(5) 0.6050(2)
C28 C 0.5982(5) 0.3853(5) 0.6685(2)
C29 C 0.4437(5) 0.0717(6) 0.9288(2)
C30 C 0.5536(5) 0.1179(6) 0.9015(2)
H18 H 0.633773 0.069696 0.903330
C31 C 0.3213(5) 0.2691(6) 0.8980(2)
H19 H 0.243078 0.320210 0.898069
C32 C 0.6299(5) 0.3155(6) 0.7846(2)
C33 C 0.4263(6) 0.3147(6) 0.8687(2)
H20 H 0.420446 0.395039 0.847530
C34 C 0.5535(6) 0.2371(6) 0.7482(2)
H21 H 0.513571 0.160529 0.762797
C35 C 0.5336(6) 0.2689(6) 0.6891(2)
H22 H 0.479457 0.215656 0.663454
C36 C 0.6941(6) 0.4301(8) 0.7649(2)
H23 H 0.747237 0.483459 0.790975
C37 C 0.5409(5) 0.2390(6) 0.8711(2)
C38 C 0.6764(6) 0.4616(6) 0.7059(2)
H24_2 H 0.719200 0.536839 0.691564
O11 O 0.7192(3) 0.5245(4) 0.47898(16)
O14 O 0.3857(4) 0.6716(4) 0.54074(17)
C25_2 C 0.2876(5) 0.5942(5) 0.5421(2)
C26_2 C 0.1710(5) 0.6460(5) 0.5716(2)
C29_2 C 0.0563(5) 0.5717(6) 0.5712(2)
H17_2 H 0.052252 0.488633 0.552261
C31_2 C 0.1787(5) 0.7691(6) 0.6020(2)
H19_2 H 0.256922 0.820210 0.601931
C33_2 C 0.0737(6) 0.8147(6) 0.6313(2)
H20_2 H 0.079554 0.895039 0.652470
H22_2 H 0.020543 0.715656 0.836546
C1_2 C 0.7124(5) 0.4058(5) 0.4579(2)
C2_2 C 0.8290(5) 0.3540(5) 0.4284(2)
C6_2 C 0.9437(5) 0.4283(6) 0.4288(2)
H2_2 H 0.947748 0.511367 0.447739
C10_2 C 0.8213(5) 0.2309(6) 0.3980(2)
H5_2 H 0.743078 0.179790 0.398069
C12_2 C 0.9263(6) 0.1853(6) 0.3687(2)
H6_2 H 0.920446 0.104961 0.347530
H9_2 H 0.979457 0.284344 0.163454
C14_2 C 0.3421(6) 0.9647(6) 0.4385(3)
H8_2 H 0.386140 0.896087 0.419628
C16_2 C 0.2208(6) 0.9439(6) 0.4576(3)
H10_2 H 0.176888 0.861819 0.451809
C23_2 C 0.6579(6) 0.0353(6) 0.5615(3)
H15_2 H 0.613860 0.103913 0.580372
C24_2 C 0.7792(6) 0.0561(6) 0.5424(3)
H16_2 H 0.823112 0.138181 0.548191
O15 O 0.0057(4) 0.1559(4) 0.07250(15)
O5_2 O 0.1504(4) 0.2134(5) 0.34403(15)
C3_2 C 0.0700(5) 0.0744(5) 0.1050(2)
C4_2 C 0.0982(5) 0.1147(5) 0.1685(2)
C9_2 C 0.0536(5) 0.3821(6) 0.4015(2)
H4_2 H 0.133773 0.430304 0.403330
C11_2 C 0.1299(5) 0.1845(6) 0.2846(2)
C13_2 C 0.0535(6) 0.2629(6) 0.2482(2)
H7_2 H 0.013571 0.339471 0.262797
C15_2 C 0.0336(6) 0.2311(6) 0.1891(2)
C17_2 C 0.1941(6) 0.0699(8) 0.2649(2)
H11_2 H 0.247237 0.016541 0.290975
C18_2 C 0.0409(5) 0.2610(6) 0.3711(2)
C19_2 C 0.1764(6) 0.0384(6) 0.2059(2)
O9 O 0.9943(4) 0.8441(4) 0.92750(15)
O10_2 O 0.8496(4) 0.7866(5) 0.65597(15)
C27_2 C 0.9300(5) 0.9256(5) 0.8950(2)
C28_2 C 0.9018(5) 0.8853(5) 0.8315(2)
C30_2 C 0.9464(5) 0.6179(6) 0.5985(2)
H18_2 H 0.866227 0.569696 0.596670
C32_2 C 0.8701(5) 0.8155(6) 0.7154(2)
C34_2 C 0.9465(6) 0.7371(6) 0.7518(2)
H21_2 H 0.986429 0.660529 0.737203
C35_2 C 0.9664(6) 0.7689(6) 0.8109(2)
C36_2 C 0.8059(6) 0.9301(8) 0.7351(2)
H23_2 H 0.752763 0.983459 0.709025
C37_2 C 0.9591(5) 0.7390(6) 0.6289(2)
C38_2 C 0.8236(6) 0.9616(6) 0.7941(2)
loop_
_geom_bond_atom_site_label_1
_geom_bond_atom_site_label_2
_geom_bond_site_symmetry_1
_geom_bond_site_symmetry_2
Cu5 O2 1_555 1_555
N1 Cu5 1_555 1_555
C5 N1 1_555 1_555
C7 C5 1_555 1_555
C8 N1 1_555 1_555
H3 C8 1_555 1_555
C14 C8 1_555 1_555
H8 C14 1_555 1_555
C16 C7 1_555 1_555
H10 C16 1_555 1_555
C14 C16 1_555 1_555
N3 C20 1_555 1_555
C22 N3 1_555 1_555
H14 C22 1_555 1_555
C23 C22 1_555 1_555
H15 C23 1_555 1_555
C24 C21 1_555 1_555
H16 C24 1_555 1_555
Cu8 N3 1_555 1_555
O7 Cu8 1_555 1_555
C20 C21 1_555 1_555
C23 C24 1_555 1_555
Cu1 O2_2 1_555 1_555
O2_2 C3 1_555 1_555
O3 C1 1_555 1_555
O4 C3 1_555 1_555
N1_2 Cu1 1_555 1_555
O5 C11 1_555 1_555
C1 C2 1_555 1_555
C2 C6 1_555 1_555
N2_2 C7_2 1_555 1_555
C3 C4 1_555 1_555
C4 C15 1_555 1_555
C5_2 N1_2 1_555 1_555
H1_2 C5_2 1_555 1_555
C7_2 C5_2 1_555 1_555
C8_2 N1_2 1_555 1_555
H3_2 C8_2 1_555 1_555
C9 C6 1_555 1_555
H4 C9 1_555 1_555
C10 C2 1_555 1_555
H5 C10 1_555 1_555
C11 C13 1_555 1_555
C12 C10 1_555 1_555
H6 C12 1_555 1_555
C13 H7 1_555 1_555
C15 C13 1_555 1_555
H9 C15 1_555 1_555
C17 C11 1_555 1_555
H11 C17 1_555 1_555
C18 O5 1_555 1_555
C19 C4 1_555 1_555
H12_2 C19 1_555 1_555
Cu6 Cu1 1_555 1_555
O12 Cu1 1_555 1_555
O13 Cu1 1_555 1_555
O16 Cu1 1_555 1_555
O4 Cu6 1_555 1_555
C9 C18 1_555 1_555
C12 C18 1_555 1_555
C17 C19 1_555 1_555
N3_2 C20_2 1_555 1_555
C20_2 H13_2 1_555 1_555
C21_2 N4_2 1_555 1_555
C22_2 N3_2 1_555 1_555
H14_2 C22_2 1_555 1_555
Cu6 N3_2 1_555 1_555
O7_2 Cu6 1_555 1_555
O8 C25 1_555 1_555
O16 C27 1_555 1_555
O10 C32 1_555 1_555
C25 C26 1_555 1_555
C26 C29 1_555 1_555
C27 O7_2 1_555 1_555
C28 C27 1_555 1_555
C30 C29 1_555 1_555
H18 C30 1_555 1_555
C31 C26 1_555 1_555
H19 C31 1_555 1_555
C32 C34 1_555 1_555
C33 C31 1_555 1_555
H20 C33 1_555 1_555
C34 H21 1_555 1_555
C35 C28 1_555 1_555
H22 C35 1_555 1_555
C36 C32 1_555 1_555
H23 C36 1_555 1_555
C37 O10 1_555 1_555
C38 C28 1_555 1_555
H24_2 C38 1_555 1_555
O11 Cu6 1_555 1_555
O14 Cu6 1_555 1_555
C20_2 C21_2 1_555 1_555
C30 C37 1_555 1_555
C33 C37 1_555 1_555
C34 C35 1_555 1_555
C36 C38 1_555 1_555
O12 C25_2 1_555 1_555
O14 C25_2 1_555 1_555
C25_2 C26_2 1_555 1_555
C26_2 C29_2 1_555 1_555
C29_2 H17_2 1_555 1_555
C31_2 C26_2 1_555 1_555
H19_2 C31_2 1_555 1_555
C33_2 C31_2 1_555 1_555
H20_2 C33_2 1_555 1_555
O11 C1_2 1_555 1_555
O13 C1_2 1_555 1_555
C1_2 C2_2 1_555 1_555
C2_2 C6_2 1_555 1_555
C6_2 H2_2 1_555 1_555
C10_2 C2_2 1_555 1_555
H5_2 C10_2 1_555 1_555
C12_2 C10_2 1_555 1_555
H6_2 C12_2 1_555 1_555
H8_2 C14_2 1_555 1_555
H10_2 C16_2 1_555 1_555
C14_2 C16_2 1_555 1_555
H15_2 C23_2 1_555 1_555
H16_2 C24_2 1_555 1_555
C23_2 C24_2 1_555 1_555
O15 C3_2 1_555 1_555
O5_2 C11_2 1_555 1_555
C3_2 C4_2 1_555 1_555
C4_2 C15_2 1_555 1_555
H4_2 C9_2 1_555 1_555
C11_2 C13_2 1_555 1_555
C13_2 H7_2 1_555 1_555
C15_2 C13_2 1_555 1_555
C17_2 C11_2 1_555 1_555
H11_2 C17_2 1_555 1_555
C18_2 O5_2 1_555 1_555
C19_2 C4_2 1_555 1_555
C9_2 C18_2 1_555 1_555
C17_2 C19_2 1_555 1_555
O9 C27_2 1_555 1_555
O10_2 C32_2 1_555 1_555
C28_2 C27_2 1_555 1_555
H18_2 C30_2 1_555 1_555
C32_2 C34_2 1_555 1_555
C34_2 H21_2 1_555 1_555
C35_2 C28_2 1_555 1_555
C36_2 C32_2 1_555 1_555
H23_2 C36_2 1_555 1_555
C37_2 O10_2 1_555 1_555
C38_2 C28_2 1_555 1_555
C30_2 C37_2 1_555 1_555
C34_2 C35_2 1_555 1_555
C36_2 C38_2 1_555 1_555

#END
