
###############################################################################
#
# This file contains modified crystal structure data generated from the
# MOF subset of the Cambridge Structural Database (CSD) v542 
# hosted by the Cambridge Crystallographic Data Centre (CCDC).
#
# This work is licensed under the Creative Commons
# Attribution-NonCommercial-ShareAlike 4.0 International License.
# To view a copy of this license, visit
# http://creativecommons.org/licenses/by-nc-sa/4.0/
# or send a letter to
# Creative Commons, PO Box 1866, Mountain View, CA 94042, USA.
#
# CIF created using the CSD Python API on 22 February 2021
# The structure has been converted into the P1 space group
# The structure has a 3D framework
# The original CSD entry GUFLOL is in the monoclinic crystal system
# The framework has been calculated to contain at least 10.0% void space
# The void calculation uses a probe of radius 1.32A, grid spacing 0.4
#
###############################################################################

data_GUFLOL
_chemical_formula_moiety         '(C88 H88 Co6 N8 O44)n'
_symmetry_cell_setting           triclinic
_symmetry_space_group_name_H-M   'P 1'
_symmetry_Int_Tables_number      1
_space_group_name_Hall           'P 1'
loop_
_symmetry_equiv_pos_site_id
_symmetry_equiv_pos_as_xyz
1 x,y,z
_cell_length_a                   14.1429(5)
_cell_length_b                   13.0123(6)
_cell_length_c                   17.6590(3)
_cell_angle_alpha                90
_cell_angle_beta                 95.412(2)
_cell_angle_gamma                90
_cell_volume                     3235.33
loop_
_atom_site_label
_atom_site_type_symbol
_atom_site_fract_x
_atom_site_fract_y
_atom_site_fract_z
O16 O 0.1261(2) 0.0055(3) 0.27829(18)
Co1 Co 0.00944(4) 0.94555(4) 0.22649(3)
O14 O 0.0686(2) 0.8528(3) 0.15874(18)
C1 C 0.6227(4) 0.3395(4) 0.2229(3)
C2 C 0.6968(3) 0.2949(4) 0.1793(3)
C3 C 0.6997(3) 0.3203(4) 0.1043(3)
H1 H 0.6525 0.3620 0.0804
C4 C 0.7717(3) 0.2850(4) 0.0636(3)
C5 C 0.8369(3) 0.2164(4) 0.0988(3)
H2 H 0.8841 0.1891 0.0716
C6 C 0.8325(3) 0.1881(4) 0.1740(3)
C7 C 0.7636(3) 0.2301(4) 0.2142(3)
H3 H 0.7623 0.2144 0.2655
C8 C 0.8999(4) 0.1112(4) 0.2112(3)
O1 O 0.6380(3) 0.3509(4) 0.2915(2)
O2 O 0.5448(2) 0.3705(3) 0.18719(18)
O3 O 0.9037(3) 0.0961(4) 0.2792(2)
O4 O 0.9501(3) 0.0595(3) 0.1675(2)
O9 O 0.4636(3) 0.3000(4) 0.0260(2)
Co2 Co 0.42689(4) 0.27951(4) 0.13623(3)
O10 O 0.5104(3) 0.1488(3) 0.1519(3)
O11 O 0.3084(3) 0.1917(4) 0.0997(3)
C17 C 0.2540(6) 0.2024(8) 0.0475(4)
H9 H 0.2670 0.2530 0.0128
C18 C 0.5557(6) 0.0976(7) 0.1162(5)
H10 H 0.5524 0.1118 0.0644
N1 N 0.1743(4) 0.1489(6) 0.0323(3)
N2 N 0.6132(5) 0.0189(6) 0.1411(6)
C19 C 0.1433(7) 0.0784(11) 0.0836(6)
H11 H 0.1529 0.0100 0.0656
H12 H 0.0769 0.0891 0.0884
H13 H 0.1785 0.0875 0.1323
H14 H 0.5932 0.0354 0.2456
O15 O 0.3846(3) 0.2520(3) 0.24342(19)
O17 O 0.3542(3) 0.4148(3) 0.11525(18)
Co3 Co 0.49056(4) 0.44555(4) 0.27351(3)
C9 C 0.7764(3) 0.3160(4) 0.9835(3)
C10 C 0.7262(3) 0.4013(4) 0.9532(3)
H4 H 0.6933 0.4422 0.9851
C11 C 0.7242(3) 0.4260(4) 0.8777(3)
C12 C 0.7771(3) 0.3685(4) 0.8314(3)
H5 H 0.7767 0.3850 0.7801
C13 C 0.8307(3) 0.2866(4) 0.8609(3)
C14 C 0.8285(3) 0.2600(4) 0.9363(3)
H6 H 0.8629 0.2032 0.9555
C15 C 0.6616(3) 0.5096(4) 0.8443(3)
C16 C 0.8865(3) 0.2230(4) 0.8109(3)
O5 O 0.9314(2) 0.1472(3) 0.84126(18)
O6 O 0.8846(3) 0.2480(3) 0.74342(19)
O7 O 0.6261(2) 0.4945(3) 0.77829(18)
O8 O 0.6458(3) 0.5852(3) 0.88475(18)
C22 C 0.1104(8) 0.1672(12) 0.9639(6)
H20 H 0.0950 0.2390 0.9602
H21 H 0.0533 0.1280 0.9664
H22 H 0.1410 0.1467 0.9200
Co4 Co 0.99056(4) 0.05445(4) 0.77351(3)
Co5 Co 0.50944(4) 0.55445(4) 0.72649(3)
Co6 Co 0.57311(4) 0.72049(4) 0.86377(3)
Co7 Co 0.92689(4) 0.22049(4) 0.63623(3)
C20 C 0.6281(8) 0.9906(10) 0.2152(7)
H15 H 0.6946 0.9953 0.2317
H16 H 0.6070 0.9212 0.2208
C21 C 0.6627(9) 0.9668(11) 0.0845(8)
H17 H 0.6311 0.9799 0.0349
H18 H 0.6632 0.8942 0.0942
H19 H 0.7269 0.9916 0.0866
O12 O 0.8620(3) 0.8509(4) 0.2085(2)
O13 O 0.9552(2) 0.8705(3) 0.31281(18)
O9_2 O 0.0364(3) 0.8000(4) 0.4740(2)
Co2_2 Co 0.07311(4) 0.77951(4) 0.36377(3)
O11_2 O 0.1916(3) 0.6917(4) 0.4003(3)
C17_2 C 0.2460(6) 0.7024(8) 0.4525(4)
H9_2 H 0.2330 0.7530 0.4872
N1_2 N 0.3257(4) 0.6489(6) 0.4677(3)
C19_2 C 0.3567(7) 0.5784(11) 0.4164(6)
H11_2 H 0.3471 0.5100 0.4344
H12_2 H 0.4231 0.5891 0.4116
H13_2 H 0.3215 0.5875 0.3677
C22_2 C 0.3896(8) 0.6672(12) 0.5361(6)
H20_2 H 0.4050 0.7390 0.5398
H21_2 H 0.4467 0.6280 0.5336
H22_2 H 0.3590 0.6467 0.5800
O15_2 O 0.1154(3) 0.7520(3) 0.25658(19)
O17_2 O 0.1458(3) 0.9148(3) 0.38475(18)
C15_2 C 0.8384(3) 0.0096(4) 0.6557(3)
O8_2 O 0.8542(3) 0.0852(3) 0.61525(18)
C1_2 C 0.8773(4) 0.8395(4) 0.2771(3)
C2_2 C 0.8032(3) 0.7949(4) 0.3207(3)
C3_2 C 0.8003(3) 0.8203(4) 0.3957(3)
H1_2 H 0.8475 0.8620 0.4196
C4_2 C 0.7283(3) 0.7850(4) 0.4364(3)
C5_2 C 0.6631(3) 0.7164(4) 0.4012(3)
H2_2 H 0.6159 0.6891 0.4284
C6_2 C 0.6675(3) 0.6881(4) 0.3260(3)
C7_2 C 0.7364(3) 0.7301(4) 0.2858(3)
H3_2 H 0.7377 0.7144 0.2345
C8_2 C 0.6001(4) 0.6112(4) 0.2888(3)
C9_2 C 0.7236(3) 0.8160(4) 0.5165(3)
C10_2 C 0.7738(3) 0.9013(4) 0.5468(3)
H4_2 H 0.8067 0.9422 0.5149
C11_2 C 0.7758(3) 0.9260(4) 0.6223(3)
C12_2 C 0.7229(3) 0.8685(4) 0.6686(3)
H5_2 H 0.7233 0.8850 0.7199
C13_2 C 0.6693(3) 0.7866(4) 0.6391(3)
C14_2 C 0.6715(3) 0.7600(4) 0.5637(3)
H6_2 H 0.6371 0.7032 0.5445
C16_2 C 0.6135(3) 0.7230(4) 0.6891(3)
O3_2 O 0.5963(3) 0.5961(4) 0.2208(2)
O4_2 O 0.5499(3) 0.5595(3) 0.3325(2)
O5_2 O 0.5686(2) 0.6472(3) 0.65874(18)
O6_2 O 0.6154(3) 0.7480(3) 0.75658(19)
O7_2 O 0.8739(2) 0.9945(3) 0.72171(18)
O10_2 O 0.9896(3) 0.6488(3) 0.3481(3)
C18_2 C 0.9443(6) 0.5976(7) 0.3838(5)
H10_2 H 0.9476 0.6118 0.4356
N2_2 N 0.8868(5) 0.5189(6) 0.3589(6)
C20_2 C 0.8719(8) 0.4906(10) 0.2848(7)
H14_2 H 0.9068 0.5354 0.2544
H15_2 H 0.8054 0.4953 0.2683
H16_2 H 0.8930 0.4212 0.2792
C21_2 C 0.8373(9) 0.4668(11) 0.4155(8)
H17_2 H 0.8689 0.4799 0.4651
H18_2 H 0.8368 0.3942 0.4058
H19_2 H 0.7731 0.4916 0.4134
O14_2 O 0.4314(2) 0.3528(3) 0.34126(18)
O16_2 O 0.3739(2) 0.5055(3) 0.22171(18)
C20_3 C 0.3719(8) 0.0094(10) 0.7848(7)
H15_3 H 0.3054 0.0047 0.7683
H16_3 H 0.3930 0.0788 0.7792
C21_3 C 0.3373(9) 0.0332(11) 0.9155(8)
H17_3 H 0.3689 0.0201 0.9651
H18_3 H 0.3368 0.1058 0.9058
H19_3 H 0.2731 0.0084 0.9134
O12_2 O 0.1380(3) 0.1491(4) 0.7915(2)
O13_2 O 0.0448(2) 0.1295(3) 0.68719(18)
C9_3 C 0.2236(3) 0.6840(4) 0.0165(3)
C10_3 C 0.2738(3) 0.5987(4) 0.0468(3)
H4_3 H 0.3067 0.5578 0.0149
C11_3 C 0.2758(3) 0.5740(4) 0.1223(3)
C12_3 C 0.2229(3) 0.6315(4) 0.1686(3)
H5_3 H 0.2233 0.6150 0.2199
C13_3 C 0.1693(3) 0.7134(4) 0.1391(3)
C14_3 C 0.1715(3) 0.7400(4) 0.0637(3)
H6_3 H 0.1371 0.7968 0.0445
C15_3 C 0.3384(3) 0.4904(4) 0.1557(3)
C16_3 C 0.1135(3) 0.7770(4) 0.1891(3)
C22_3 C 0.8896(8) 0.8328(12) 0.0361(6)
H20_3 H 0.9050 0.7610 0.0398
H21_3 H 0.9467 0.8720 0.0336
H22_3 H 0.8590 0.8533 0.0800
C1_3 C 0.3773(4) 0.6605(4) 0.7771(3)
C2_3 C 0.3032(3) 0.7051(4) 0.8207(3)
C3_3 C 0.3003(3) 0.6797(4) 0.8957(3)
H1_3 H 0.3475 0.6380 0.9196
C4_3 C 0.2283(3) 0.7150(4) 0.9364(3)
C5_3 C 0.1631(3) 0.7836(4) 0.9012(3)
H2_3 H 0.1159 0.8109 0.9284
C6_3 C 0.1675(3) 0.8119(4) 0.8260(3)
C7_3 C 0.2364(3) 0.7699(4) 0.7858(3)
H3_3 H 0.2377 0.7856 0.7345
C8_3 C 0.1001(4) 0.8888(4) 0.7888(3)
O1_2 O 0.3620(3) 0.6491(4) 0.7085(2)
O2_2 O 0.4552(2) 0.6295(3) 0.81281(18)
O3_3 O 0.0963(3) 0.9039(4) 0.7208(2)
O4_3 O 0.0499(3) 0.9405(3) 0.8325(2)
O9_3 O 0.5364(3) 0.7000(4) 0.9740(2)
O10_3 O 0.4896(3) 0.8512(3) 0.8481(3)
O11_3 O 0.6916(3) 0.8083(4) 0.9003(3)
C17_3 C 0.7460(6) 0.7976(8) 0.9525(4)
H9_3 H 0.7330 0.7470 0.9872
C18_3 C 0.4443(6) 0.9024(7) 0.8838(5)
H10_3 H 0.4476 0.8882 0.9356
N1_3 N 0.8257(4) 0.8511(6) 0.9677(3)
N2_3 N 0.3868(5) 0.9811(6) 0.8589(6)
C19_3 C 0.8567(7) 0.9216(11) 0.9164(6)
H11_3 H 0.8471 0.9900 0.9344
H12_3 H 0.9231 0.9109 0.9116
H13_3 H 0.8215 0.9125 0.8677
H14_3 H 0.4068 0.9646 0.7544
C1_4 C 0.1227(4) 0.1605(4) 0.7229(3)
C2_4 C 0.1968(3) 0.2051(4) 0.6793(3)
C3_4 C 0.1997(3) 0.1797(4) 0.6043(3)
H1_4 H 0.1525 0.1380 0.5804
C4_4 C 0.2717(3) 0.2150(4) 0.5636(3)
C5_4 C 0.3369(3) 0.2836(4) 0.5988(3)
H2_4 H 0.3841 0.3109 0.5716
C6_4 C 0.3325(3) 0.3119(4) 0.6740(3)
C7_4 C 0.2636(3) 0.2699(4) 0.7142(3)
H3_4 H 0.2623 0.2856 0.7655
C8_4 C 0.3999(4) 0.3888(4) 0.7112(3)
C9_4 C 0.2764(3) 0.1840(4) 0.4835(3)
C10_4 C 0.2262(3) 0.0987(4) 0.4532(3)
H4_4 H 0.1933 0.0578 0.4851
C11_4 C 0.2242(3) 0.0740(4) 0.3777(3)
C12_4 C 0.2771(3) 0.1315(4) 0.3314(3)
H5_4 H 0.2767 0.1150 0.2801
C13_4 C 0.3307(3) 0.2134(4) 0.3609(3)
C14_4 C 0.3285(3) 0.2400(4) 0.4363(3)
H6_4 H 0.3629 0.2968 0.4555
C16_4 C 0.3865(3) 0.2770(4) 0.3109(3)
O3_4 O 0.4037(3) 0.4039(4) 0.7792(2)
O4_4 O 0.4501(3) 0.4405(3) 0.6675(2)
O10_4 O 0.0104(3) 0.3512(3) 0.6519(3)
C18_4 C 0.0557(6) 0.4024(7) 0.6162(5)
H10_4 H 0.0524 0.3882 0.5644
N2_4 N 0.1132(5) 0.4811(6) 0.6411(6)
C20_4 C 0.1281(8) 0.5094(10) 0.7152(7)
H14_4 H 0.0932 0.4646 0.7456
H15_4 H 0.1946 0.5047 0.7317
H16_4 H 0.1070 0.5788 0.7208
C21_4 C 0.1627(9) 0.5332(11) 0.5845(8)
H17_4 H 0.1311 0.5201 0.5349
H18_4 H 0.1632 0.6058 0.5942
H19_4 H 0.2269 0.5084 0.5866
C15_4 C 0.1616(3) 0.9904(4) 0.3443(3)
O9_4 O 0.9636(3) 0.2000(4) 0.5260(2)
O11_4 O 0.8084(3) 0.3083(4) 0.5997(3)
C17_4 C 0.7540(6) 0.2976(8) 0.5475(4)
H9_4 H 0.7670 0.2470 0.5128
N1_4 N 0.6743(4) 0.3511(6) 0.5323(3)
C19_4 C 0.6433(7) 0.4216(11) 0.5836(6)
H11_4 H 0.6529 0.4900 0.5656
H12_4 H 0.5769 0.4109 0.5884
H13_4 H 0.6785 0.4125 0.6323
C22_4 C 0.6104(8) 0.3328(12) 0.4639(6)
H20_4 H 0.5950 0.2610 0.4602
H21_4 H 0.5533 0.3720 0.4664
H22_4 H 0.6410 0.3533 0.4200
loop_
_geom_bond_atom_site_label_1
_geom_bond_atom_site_label_2
_geom_bond_site_symmetry_1
_geom_bond_site_symmetry_2
O14 Co1 1_555 1_555
C1 C2 1_555 1_555
C2 C3 1_555 1_555
C3 H1 1_555 1_555
C4 C3 1_555 1_555
C5 C4 1_555 1_555
H2 C5 1_555 1_555
C6 C5 1_555 1_555
C7 C2 1_555 1_555
H3 C7 1_555 1_555
C8 C6 1_555 1_555
O1 C1 1_555 1_555
O2 C1 1_555 1_555
O3 C8 1_555 1_555
O4 C8 1_555 1_555
Co2 O2 1_555 1_555
O10 Co2 1_555 1_555
O11 Co2 1_555 1_555
C17 O11 1_555 1_555
H9 C17 1_555 1_555
C18 O10 1_555 1_555
H10 C18 1_555 1_555
N1 C17 1_555 1_555
N2 C18 1_555 1_555
C19 N1 1_555 1_555
H11 C19 1_555 1_555
H12 C19 1_555 1_555
H13 C19 1_555 1_555
O15 Co2 1_555 1_555
O17 Co2 1_555 1_555
Co3 O1 1_555 1_555
C6 C7 1_555 1_555
O2 Co3 1_555 1_555
O9 Co2 1_555 1_555
C10 C9 1_555 1_555
H4 C10 1_555 1_555
C11 C10 1_555 1_555
C12 C11 1_555 1_555
H5 C12 1_555 1_555
C13 C12 1_555 1_555
C14 C9 1_555 1_555
H6 C14 1_555 1_555
C15 C11 1_555 1_555
C16 C13 1_555 1_555
O5 C16 1_555 1_555
O6 C16 1_555 1_555
O7 C15 1_555 1_555
O8 C15 1_555 1_555
H20 C22 1_555 1_555
H21 C22 1_555 1_555
H22 C22 1_555 1_555
Co4 O5 1_555 1_555
Co5 O7 1_555 1_555
Co6 O8 1_555 1_555
Co7 O6 1_555 1_555
C13 C14 1_555 1_555
H15 C20 1_555 1_555
H16 C20 1_555 1_555
H17 C21 1_555 1_555
H18 C21 1_555 1_555
H19 C21 1_555 1_555
O11_2 Co2_2 1_555 1_555
C17_2 O11_2 1_555 1_555
H9_2 C17_2 1_555 1_555
N1_2 C17_2 1_555 1_555
C19_2 N1_2 1_555 1_555
H11_2 C19_2 1_555 1_555
H12_2 C19_2 1_555 1_555
H13_2 C19_2 1_555 1_555
C22_2 N1_2 1_555 1_555
H20_2 C22_2 1_555 1_555
H21_2 C22_2 1_555 1_555
H22_2 C22_2 1_555 1_555
O15_2 Co2_2 1_555 1_555
O17_2 Co2_2 1_555 1_555
O9_2 Co2_2 1_555 1_555
O8_2 C15_2 1_555 1_555
Co7 O8_2 1_555 1_555
C1_2 C2_2 1_555 1_555
C2_2 C3_2 1_555 1_555
C3_2 H1_2 1_555 1_555
C4_2 C3_2 1_555 1_555
C5_2 C4_2 1_555 1_555
H2_2 C5_2 1_555 1_555
C6_2 C5_2 1_555 1_555
C7_2 C2_2 1_555 1_555
H3_2 C7_2 1_555 1_555
C8_2 C6_2 1_555 1_555
C9_2 C4_2 1_555 1_555
C10_2 C9_2 1_555 1_555
H4_2 C10_2 1_555 1_555
C11_2 C10_2 1_555 1_555
C12_2 C11_2 1_555 1_555
H5_2 C12_2 1_555 1_555
C13_2 C12_2 1_555 1_555
C14_2 C9_2 1_555 1_555
H6_2 C14_2 1_555 1_555
C16_2 C13_2 1_555 1_555
O12 C1_2 1_555 1_555
O13 C1_2 1_555 1_555
O3_2 C8_2 1_555 1_555
O4_2 C8_2 1_555 1_555
O5_2 C16_2 1_555 1_555
O6_2 C16_2 1_555 1_555
Co3 O4_2 1_555 1_555
C18_2 O10_2 1_555 1_555
H10_2 C18_2 1_555 1_555
N2_2 C18_2 1_555 1_555
C20_2 N2_2 1_555 1_555
H14_2 C20_2 1_555 1_555
H15_2 C20_2 1_555 1_555
H16_2 C20_2 1_555 1_555
C21_2 N2_2 1_555 1_555
H17_2 C21_2 1_555 1_555
H18_2 C21_2 1_555 1_555
H19_2 C21_2 1_555 1_555
O14_2 Co3 1_555 1_555
O16_2 Co3 1_555 1_555
Co5 O5_2 1_555 1_555
Co6 O6_2 1_555 1_555
C6_2 C7_2 1_555 1_555
C13_2 C14_2 1_555 1_555
H15_3 C20_3 1_555 1_555
H16_3 C20_3 1_555 1_555
H17_3 C21_3 1_555 1_555
H18_3 C21_3 1_555 1_555
H19_3 C21_3 1_555 1_555
C10_3 C9_3 1_555 1_555
H4_3 C10_3 1_555 1_555
C11_3 C10_3 1_555 1_555
C12_3 C11_3 1_555 1_555
H5_3 C12_3 1_555 1_555
C13_3 C12_3 1_555 1_555
C14_3 C9_3 1_555 1_555
H6_3 C14_3 1_555 1_555
C15_3 C11_3 1_555 1_555
C16_3 C13_3 1_555 1_555
O14 C16_3 1_555 1_555
O15_2 C16_3 1_555 1_555
O16_2 C15_3 1_555 1_555
O17 C15_3 1_555 1_555
H20_3 C22_3 1_555 1_555
H21_3 C22_3 1_555 1_555
H22_3 C22_3 1_555 1_555
C13_3 C14_3 1_555 1_555
C1_3 C2_3 1_555 1_555
C2_3 C3_3 1_555 1_555
C3_3 H1_3 1_555 1_555
C4_3 C3_3 1_555 1_555
C5_3 C4_3 1_555 1_555
H2_3 C5_3 1_555 1_555
C6_3 C5_3 1_555 1_555
C7_3 C2_3 1_555 1_555
H3_3 C7_3 1_555 1_555
C8_3 C6_3 1_555 1_555
O1_2 C1_3 1_555 1_555
O2_2 C1_3 1_555 1_555
O3_3 C8_3 1_555 1_555
O4_3 C8_3 1_555 1_555
Co6 O2_2 1_555 1_555
O10_3 Co6 1_555 1_555
O11_3 Co6 1_555 1_555
C17_3 O11_3 1_555 1_555
H9_3 C17_3 1_555 1_555
C18_3 O10_3 1_555 1_555
H10_3 C18_3 1_555 1_555
N1_3 C17_3 1_555 1_555
N2_3 C18_3 1_555 1_555
C19_3 N1_3 1_555 1_555
H11_3 C19_3 1_555 1_555
H12_3 C19_3 1_555 1_555
H13_3 C19_3 1_555 1_555
Co5 O1_2 1_555 1_555
C6_3 C7_3 1_555 1_555
O2_2 Co5 1_555 1_555
O9_3 Co6 1_555 1_555
C1_4 C2_4 1_555 1_555
C2_4 C3_4 1_555 1_555
C3_4 H1_4 1_555 1_555
C4_4 C3_4 1_555 1_555
C5_4 C4_4 1_555 1_555
H2_4 C5_4 1_555 1_555
C6_4 C5_4 1_555 1_555
C7_4 C2_4 1_555 1_555
H3_4 C7_4 1_555 1_555
C8_4 C6_4 1_555 1_555
C9_4 C4_4 1_555 1_555
C10_4 C9_4 1_555 1_555
H4_4 C10_4 1_555 1_555
C11_4 C10_4 1_555 1_555
C12_4 C11_4 1_555 1_555
H5_4 C12_4 1_555 1_555
C13_4 C12_4 1_555 1_555
C14_4 C9_4 1_555 1_555
H6_4 C14_4 1_555 1_555
C16_4 C13_4 1_555 1_555
O12_2 C1_4 1_555 1_555
O13_2 C1_4 1_555 1_555
O3_4 C8_4 1_555 1_555
O4_4 C8_4 1_555 1_555
O14_2 C16_4 1_555 1_555
O15 C16_4 1_555 1_555
Co5 O4_4 1_555 1_555
C18_4 O10_4 1_555 1_555
H10_4 C18_4 1_555 1_555
N2_4 C18_4 1_555 1_555
C20_4 N2_4 1_555 1_555
H14_4 C20_4 1_555 1_555
H15_4 C20_4 1_555 1_555
H16_4 C20_4 1_555 1_555
C21_4 N2_4 1_555 1_555
H17_4 C21_4 1_555 1_555
H18_4 C21_4 1_555 1_555
H19_4 C21_4 1_555 1_555
C6_4 C7_4 1_555 1_555
C13_4 C14_4 1_555 1_555
O17_2 C15_4 1_555 1_555
O11_4 Co7 1_555 1_555
C17_4 O11_4 1_555 1_555
H9_4 C17_4 1_555 1_555
N1_4 C17_4 1_555 1_555
C19_4 N1_4 1_555 1_555
H11_4 C19_4 1_555 1_555
H12_4 C19_4 1_555 1_555
H13_4 C19_4 1_555 1_555
C22_4 N1_4 1_555 1_555
H20_4 C22_4 1_555 1_555
H21_4 C22_4 1_555 1_555
H22_4 C22_4 1_555 1_555
O9_4 Co7 1_555 1_555

#END
