
###############################################################################
#
# This file contains modified crystal structure data generated from the
# MOF subset of the Cambridge Structural Database (CSD) v542 
# hosted by the Cambridge Crystallographic Data Centre (CCDC).
#
# This work is licensed under the Creative Commons
# Attribution-NonCommercial-ShareAlike 4.0 International License.
# To view a copy of this license, visit
# http://creativecommons.org/licenses/by-nc-sa/4.0/
# or send a letter to
# Creative Commons, PO Box 1866, Mountain View, CA 94042, USA.
#
# CIF created using the CSD Python API on 22 February 2021
# The structure has been converted into the P1 space group
# The structure has a 3D framework
# The original CSD entry HUDMUR is in the monoclinic crystal system
# The framework has been calculated to contain at least 10.0% void space
# The void calculation uses a probe of radius 1.32A, grid spacing 0.4
#
###############################################################################

data_HUDMUR
_chemical_formula_moiety         '(C128 H80 Co6 N8 O40)n'
_symmetry_cell_setting           triclinic
_symmetry_space_group_name_H-M   'P 1'
_symmetry_Int_Tables_number      1
_space_group_name_Hall           'P 1'
loop_
_symmetry_equiv_pos_site_id
_symmetry_equiv_pos_as_xyz
1 x,y,z
_cell_length_a                   17.762(7)
_cell_length_b                   29.772(5)
_cell_length_c                   10.668(5)
_cell_angle_alpha                90
_cell_angle_beta                 117.536(5)
_cell_angle_gamma                90
_cell_volume                     5002.3
loop_
_atom_site_label
_atom_site_type_symbol
_atom_site_fract_x
_atom_site_fract_y
_atom_site_fract_z
O6 O 0.7176(2) 0.68299(9) 0.0041(3)
O7 O 0.6583(2) 0.25016(9) 0.2867(3)
O8 O 0.7333(2) 0.65819(9) 0.2131(3)
O9 O 0.7080(2) 0.22419(10) 0.1438(3)
C21 C 0.6068(2) 0.53983(11) 0.0311(4)
H11 H 0.593572 0.519248 0.083586
C22 C 0.6505(3) 0.57857(11) 0.0949(4)
H12 H 0.667356 0.583603 0.190270
C23 C 0.5460(3) 0.35850(12) 0.0179(4)
H13 H 0.512592 0.378890 0.036166
C24 C 0.6695(3) 0.61022(11) 0.0172(4)
C27 C 0.6277(3) 0.29078(11) 0.0779(4)
C29 C 0.5790(3) 0.32126(12) 0.1042(4)
H17 H 0.567883 0.316921 0.180434
C31 C 0.7102(3) 0.65412(12) 0.0815(4)
C32 C 0.6668(3) 0.25274(13) 0.1773(5)
Co2 Co 0.750000 0.750000 0.000000
Co3 Co 0.750000 0.250000 0.500000
Co1 Co 0.250000 0.750000 0.500000
O1 O 0.2824(2) 0.68299(9) 0.4959(3)
O2 O 0.3417(2) 0.25016(9) 0.2133(3)
O3 O 0.2667(2) 0.65819(9) 0.2869(3)
O4 O 0.2920(2) 0.22419(10) 0.3562(3)
O5 O 0.3421(3) 0.77200(13) 0.4466(4)
C1 C 0.4651(2) 0.48973(11) 0.6821(4)
C2 C 0.4375(2) 0.36549(11) 0.5949(4)
C3 C 0.4692(2) 0.40751(11) 0.6794(4)
C4 C 0.4179(2) 0.53118(11) 0.6116(4)
C5 C 0.3932(2) 0.53983(11) 0.4689(4)
H3 H 0.406428 0.519248 0.416414
N1 N 0.4353(2) 0.44854(9) 0.6137(3)
C6 C 0.3495(3) 0.57857(11) 0.4051(4)
H4 H 0.332644 0.583603 0.309730
C7 C 0.4540(3) 0.35850(12) 0.4821(4)
H5 H 0.487408 0.378890 0.463834
C8 C 0.3305(3) 0.61022(11) 0.4828(4)
C9 C 0.3888(3) 0.33425(11) 0.6231(4)
H6 H 0.378196 0.338250 0.699985
C10 C 0.3965(3) 0.56219(11) 0.6865(4)
H7 H 0.411321 0.556676 0.780835
C11 C 0.3723(3) 0.29078(11) 0.4221(4)
C12 C 0.3537(3) 0.60104(11) 0.6237(4)
H8 H 0.340202 0.621418 0.676235
C13 C 0.4210(3) 0.32126(12) 0.3958(4)
H9 H 0.432117 0.316921 0.319566
C14 C 0.3563(3) 0.29740(12) 0.5361(4)
H10 H 0.323278 0.276738 0.554242
C15 C 0.2898(3) 0.65412(12) 0.4185(4)
C16 C 0.3332(3) 0.25274(13) 0.3227(5)
C17 C 0.5349(2) 0.48973(11) 0.8179(4)
C18 C 0.5625(2) 0.36549(11) 0.9051(4)
C19 C 0.5308(2) 0.40751(11) 0.8206(4)
C20 C 0.5821(2) 0.53118(11) 0.8884(4)
N2 N 0.5647(2) 0.44854(9) 0.8863(3)
C25 C 0.6112(3) 0.33425(11) 0.8769(4)
H14 H 0.621804 0.338250 0.800015
C26 C 0.6035(3) 0.56219(11) 0.8135(4)
H15 H 0.588679 0.556676 0.719165
C28 C 0.6463(3) 0.60104(11) 0.8763(4)
H16 H 0.659798 0.621418 0.823765
C30 C 0.6437(3) 0.29740(12) 0.9639(4)
H18 H 0.676722 0.276738 0.945758
O10 O 0.1579(3) 0.72800(13) 0.5534(4)
Co2_2 Co 0.750000 0.750000 1.000000
Co4 Co 0.250000 0.250000 0.000000
O11 O 0.2176(2) 0.81701(9) 0.5041(3)
O12 O 0.1583(2) 0.75016(9) 0.2867(3)
O13 O 0.3417(2) 0.74984(9) 0.7133(3)
Co4_2 Co 0.250000 0.250000 1.000000
O5_2 O 0.6579(3) 0.77200(13) 0.0534(4)
O12_2 O 0.8417(2) 0.75016(9) 0.2133(3)
O10_2 O 0.8421(3) 0.72800(13) 0.9466(4)
O11_2 O 0.7824(2) 0.81701(9) 0.9959(3)
O13_2 O 0.6583(2) 0.74984(9) 0.7867(3)
O6_2 O 0.2176(2) 0.18299(9) 0.0041(3)
O8_2 O 0.2333(2) 0.15819(9) 0.2131(3)
C21_2 C 0.1068(2) 0.03983(11) 0.0311(4)
H11_2 H 0.093572 0.019248 0.083586
C22_2 C 0.1505(3) 0.07857(11) 0.0949(4)
H12_2 H 0.167356 0.083603 0.190270
C24_2 C 0.1695(3) 0.11022(11) 0.0172(4)
C31_2 C 0.2102(3) 0.15412(12) 0.0815(4)
C20_2 C 0.0821(2) 0.03118(11) 0.8884(4)
C26_2 C 0.1035(3) 0.06219(11) 0.8135(4)
H15_2 H 0.088679 0.056676 0.719165
C28_2 C 0.1463(3) 0.10104(11) 0.8763(4)
H16_2 H 0.159798 0.121418 0.823765
O9_2 O 0.2080(2) 0.72419(10) 0.1438(3)
C23_2 C 0.0460(3) 0.85850(12) 0.0179(4)
H13_2 H 0.012592 0.878890 0.036166
C27_2 C 0.1277(3) 0.79078(11) 0.0779(4)
C29_2 C 0.0790(3) 0.82126(12) 0.1042(4)
H17_2 H 0.067883 0.816921 0.180434
C32_2 C 0.1668(3) 0.75274(13) 0.1773(5)
O1_2 O 0.7824(2) 0.18299(9) 0.4959(3)
O3_2 O 0.7667(2) 0.15819(9) 0.2869(3)
O5_3 O 0.8421(3) 0.27200(13) 0.4466(4)
C4_2 C 0.9179(2) 0.03118(11) 0.6116(4)
C5_2 C 0.8932(2) 0.03983(11) 0.4689(4)
H3_2 H 0.906428 0.019248 0.416414
C6_2 C 0.8495(3) 0.07857(11) 0.4051(4)
H4_2 H 0.832644 0.083603 0.309730
C8_2 C 0.8305(3) 0.11022(11) 0.4828(4)
C10_2 C 0.8965(3) 0.06219(11) 0.6865(4)
H7_2 H 0.911321 0.056676 0.780835
C12_2 C 0.8537(3) 0.10104(11) 0.6237(4)
H8_2 H 0.840202 0.121418 0.676235
C15_2 C 0.7898(3) 0.15412(12) 0.4185(4)
O10_3 O 0.6579(3) 0.22800(13) 0.5534(4)
O11_3 O 0.7176(2) 0.31701(9) 0.5041(3)
O13_3 O 0.8417(2) 0.24984(9) 0.7133(3)
O4_2 O 0.7920(2) 0.72419(10) 0.3562(3)
C1_2 C 0.9651(2) 0.98973(11) 0.6821(4)
C2_2 C 0.9375(2) 0.86549(11) 0.5949(4)
C3_2 C 0.9692(2) 0.90751(11) 0.6794(4)
N1_2 N 0.9353(2) 0.94854(9) 0.6137(3)
C7_2 C 0.9540(3) 0.85850(12) 0.4821(4)
H5_2 H 0.987408 0.878890 0.463834
C9_2 C 0.8888(3) 0.83425(11) 0.6231(4)
H6_2 H 0.878196 0.838250 0.699985
C11_2 C 0.8723(3) 0.79078(11) 0.4221(4)
C13_2 C 0.9210(3) 0.82126(12) 0.3958(4)
H9_2 H 0.932117 0.816921 0.319566
C14_2 C 0.8563(3) 0.79740(12) 0.5361(4)
H10_2 H 0.823278 0.776738 0.554242
C16_2 C 0.8332(3) 0.75274(13) 0.3227(5)
O5_4 O 0.1579(3) 0.27200(13) 0.0534(4)
O10_4 O 0.3421(3) 0.22800(13) 0.9466(4)
O11_4 O 0.2824(2) 0.31701(9) 0.9959(3)
O13_4 O 0.1583(2) 0.24984(9) 0.7867(3)
O3_3 O 0.7333(2) 0.34181(9) 0.7131(3)
O4_3 O 0.7080(2) 0.77581(10) 0.6438(3)
C1_3 C 0.5349(2) 0.51027(11) 0.3179(4)
C2_3 C 0.5625(2) 0.63451(11) 0.4051(4)
C3_3 C 0.5308(2) 0.59249(11) 0.3206(4)
C4_3 C 0.5821(2) 0.46882(11) 0.3884(4)
C5_3 C 0.6068(2) 0.46017(11) 0.5311(4)
H3_3 H 0.593572 0.480752 0.583586
N1_3 N 0.5647(2) 0.55146(9) 0.3863(3)
C6_3 C 0.6505(3) 0.42143(11) 0.5949(4)
H4_3 H 0.667356 0.416397 0.690270
C7_3 C 0.5460(3) 0.64150(12) 0.5179(4)
H5_3 H 0.512592 0.621110 0.536166
C8_3 C 0.6695(3) 0.38978(11) 0.5172(4)
C9_3 C 0.6112(3) 0.66575(11) 0.3769(4)
H6_3 H 0.621804 0.661750 0.300015
C10_3 C 0.6035(3) 0.43781(11) 0.3135(4)
H7_3 H 0.588679 0.443324 0.219165
C11_3 C 0.6277(3) 0.70922(11) 0.5779(4)
C12_3 C 0.6463(3) 0.39896(11) 0.3763(4)
H8_3 H 0.659798 0.378582 0.323765
C13_3 C 0.5790(3) 0.67874(12) 0.6042(4)
H9_3 H 0.567883 0.683079 0.680434
C14_3 C 0.6437(3) 0.70260(12) 0.4639(4)
H10_3 H 0.676722 0.723262 0.445758
C15_3 C 0.7102(3) 0.34588(12) 0.5815(4)
C16_3 C 0.6668(3) 0.74726(13) 0.6773(5)
C17_2 C 0.4651(2) 0.51027(11) 0.1821(4)
C18_2 C 0.4375(2) 0.63451(11) 0.0949(4)
C19_2 C 0.4692(2) 0.59249(11) 0.1794(4)
C20_3 C 0.4179(2) 0.46882(11) 0.1116(4)
N2_2 N 0.4353(2) 0.55146(9) 0.1137(3)
C25_2 C 0.3888(3) 0.66575(11) 0.1231(4)
H14_2 H 0.378196 0.661750 0.199985
C26_3 C 0.3965(3) 0.43781(11) 0.1865(4)
H15_3 H 0.411321 0.443324 0.280835
C28_3 C 0.3537(3) 0.39896(11) 0.1237(4)
H16_3 H 0.340202 0.378582 0.176235
C30_2 C 0.3563(3) 0.70260(12) 0.0361(4)
H18_2 H 0.323278 0.723262 0.054242
O8_3 O 0.2667(2) 0.34181(9) 0.7869(3)
O9_3 O 0.2920(2) 0.77581(10) 0.8562(3)
C21_3 C 0.3932(2) 0.46017(11) 0.9689(4)
H11_3 H 0.406428 0.480752 0.916414
C22_3 C 0.3495(3) 0.42143(11) 0.9051(4)
H12_3 H 0.332644 0.416397 0.809730
C23_3 C 0.4540(3) 0.64150(12) 0.9821(4)
H13_3 H 0.487408 0.621110 0.963834
C24_3 C 0.3305(3) 0.38978(11) 0.9828(4)
C27_3 C 0.3723(3) 0.70922(11) 0.9221(4)
C29_3 C 0.4210(3) 0.67874(12) 0.8958(4)
H17_3 H 0.432117 0.683079 0.819566
C31_3 C 0.2898(3) 0.34588(12) 0.9185(4)
C32_3 C 0.3332(3) 0.74726(13) 0.8227(5)
O4_4 O 0.2080(2) 0.27581(10) 0.6438(3)
C1_4 C 0.0349(2) 0.01027(11) 0.3179(4)
C2_4 C 0.0625(2) 0.13451(11) 0.4051(4)
C3_4 C 0.0308(2) 0.09249(11) 0.3206(4)
N1_4 N 0.0647(2) 0.05146(9) 0.3863(3)
C7_4 C 0.0460(3) 0.14150(12) 0.5179(4)
H5_4 H 0.012592 0.121110 0.536166
C9_4 C 0.1112(3) 0.16575(11) 0.3769(4)
H6_4 H 0.121804 0.161750 0.300015
C11_4 C 0.1277(3) 0.20922(11) 0.5779(4)
C13_4 C 0.0790(3) 0.17874(12) 0.6042(4)
H9_4 H 0.067883 0.183079 0.680434
C14_4 C 0.1437(3) 0.20260(12) 0.4639(4)
H10_4 H 0.176722 0.223262 0.445758
C16_4 C 0.1668(3) 0.24726(13) 0.6773(5)
O3_4 O 0.2333(2) 0.84181(9) 0.7131(3)
C4_4 C 0.0821(2) 0.96882(11) 0.3884(4)
C5_4 C 0.1068(2) 0.96017(11) 0.5311(4)
H3_4 H 0.093572 0.980752 0.583586
C6_4 C 0.1505(3) 0.92143(11) 0.5949(4)
H4_4 H 0.167356 0.916397 0.690270
C8_4 C 0.1695(3) 0.88978(11) 0.5172(4)
C10_4 C 0.1035(3) 0.93781(11) 0.3135(4)
H7_4 H 0.088679 0.943324 0.219165
C12_4 C 0.1463(3) 0.89896(11) 0.3763(4)
H8_4 H 0.159798 0.878582 0.323765
C15_4 C 0.2102(3) 0.84588(12) 0.5815(4)
O9_4 O 0.7920(2) 0.27581(10) 0.8562(3)
C23_4 C 0.9540(3) 0.14150(12) 0.9821(4)
H13_4 H 0.987408 0.121110 0.963834
C27_4 C 0.8723(3) 0.20922(11) 0.9221(4)
C29_4 C 0.9210(3) 0.17874(12) 0.8958(4)
H17_4 H 0.932117 0.183079 0.819566
C32_4 C 0.8332(3) 0.24726(13) 0.8227(5)
C20_4 C 0.9179(2) 0.96882(11) 0.1116(4)
C26_4 C 0.8965(3) 0.93781(11) 0.1865(4)
H15_4 H 0.911321 0.943324 0.280835
C28_4 C 0.8537(3) 0.89896(11) 0.1237(4)
H16_4 H 0.840202 0.878582 0.176235
O8_4 O 0.7667(2) 0.84181(9) 0.7869(3)
C21_4 C 0.8932(2) 0.96017(11) 0.9689(4)
H11_4 H 0.906428 0.980752 0.916414
C22_4 C 0.8495(3) 0.92143(11) 0.9051(4)
H12_4 H 0.832644 0.916397 0.809730
C24_4 C 0.8305(3) 0.88978(11) 0.9828(4)
C31_4 C 0.7898(3) 0.84588(12) 0.9185(4)
C17_3 C 0.0349(2) 0.98973(11) 0.8179(4)
C18_3 C 0.0625(2) 0.86549(11) 0.9051(4)
C19_3 C 0.0308(2) 0.90751(11) 0.8206(4)
N2_3 N 0.0647(2) 0.94854(9) 0.8863(3)
C25_3 C 0.1112(3) 0.83425(11) 0.8769(4)
H14_3 H 0.121804 0.838250 0.800015
C30_3 C 0.1437(3) 0.79740(12) 0.9639(4)
H18_3 H 0.176722 0.776738 0.945758
C17_4 C 0.9651(2) 0.01027(11) 0.1821(4)
C18_4 C 0.9375(2) 0.13451(11) 0.0949(4)
C19_4 C 0.9692(2) 0.09249(11) 0.1794(4)
N2_4 N 0.9353(2) 0.05146(9) 0.1137(3)
C25_4 C 0.8888(3) 0.16575(11) 0.1231(4)
H14_4 H 0.878196 0.161750 0.199985
C30_4 C 0.8563(3) 0.20260(12) 0.0361(4)
H18_4 H 0.823278 0.223262 0.054242
loop_
_geom_bond_atom_site_label_1
_geom_bond_atom_site_label_2
_geom_bond_site_symmetry_1
_geom_bond_site_symmetry_2
O6 C31 1_555 1_555
O7 C32 1_555 1_555
O8 C31 1_555 1_555
O9 C32 1_555 1_555
H11 C21 1_555 1_555
C22 C21 1_555 1_555
H12 C22 1_555 1_555
H13 C23 1_555 1_555
C24 C22 1_555 1_555
C27 C29 1_555 1_555
C29 C23 1_555 1_555
H17 C29 1_555 1_555
C31 C24 1_555 1_555
C32 C27 1_555 1_555
Co2 O6 1_555 1_555
Co3 O7 1_555 1_555
Co1 O1 1_555 1_555
O1 C15 1_555 1_555
O2 C16 1_555 1_555
O3 C15 1_555 1_555
O4 C16 1_555 1_555
O5 Co1 1_555 1_555
C1 C4 1_555 1_555
C2 C3 1_555 1_555
C3 N1 1_555 1_555
C4 C5 1_555 1_555
C5 H3 1_555 1_555
N1 C1 1_555 1_555
C6 C5 1_555 1_555
H4 C6 1_555 1_555
C7 C2 1_555 1_555
H5 C7 1_555 1_555
C8 C6 1_555 1_555
C9 C2 1_555 1_555
H6 C9 1_555 1_555
C10 C4 1_555 1_555
H7 C10 1_555 1_555
C11 C13 1_555 1_555
C12 C8 1_555 1_555
H8 C12 1_555 1_555
C13 C7 1_555 1_555
H9 C13 1_555 1_555
C14 C9 1_555 1_555
H10 C14 1_555 1_555
C15 C8 1_555 1_555
C16 C11 1_555 1_555
C17 C1 1_555 1_555
C18 C19 1_555 1_555
C19 C3 1_555 1_555
C20 C17 1_555 1_555
N2 C17 1_555 1_555
C25 C18 1_555 1_555
H14 C25 1_555 1_555
C26 C20 1_555 1_555
H15 C26 1_555 1_555
H16 C28 1_555 1_555
C30 C25 1_555 1_555
H18 C30 1_555 1_555
O10 Co1 1_555 1_555
Co4 O2 1_555 1_555
O11 Co1 1_555 1_555
O12 Co1 1_555 1_555
O13 Co1 1_555 1_555
C10 C12 1_555 1_555
C11 C14 1_555 1_555
C19 N2 1_555 1_555
C26 C28 1_555 1_555
O5_2 Co2 1_555 1_555
O12_2 Co2 1_555 1_555
O10_2 Co2_2 1_555 1_555
O11_2 Co2_2 1_555 1_555
O13_2 Co2_2 1_555 1_555
O6_2 C31_2 1_555 1_555
O8_2 C31_2 1_555 1_555
H11_2 C21_2 1_555 1_555
C22_2 C21_2 1_555 1_555
H12_2 C22_2 1_555 1_555
C24_2 C22_2 1_555 1_555
C31_2 C24_2 1_555 1_555
Co4 O6_2 1_555 1_555
C26_2 C20_2 1_555 1_555
H15_2 C26_2 1_555 1_555
H16_2 C28_2 1_555 1_555
C26_2 C28_2 1_555 1_555
O12 C32_2 1_555 1_555
O9_2 C32_2 1_555 1_555
H13_2 C23_2 1_555 1_555
C27_2 C29_2 1_555 1_555
C29_2 C23_2 1_555 1_555
H17_2 C29_2 1_555 1_555
C32_2 C27_2 1_555 1_555
Co3 O1_2 1_555 1_555
O1_2 C15_2 1_555 1_555
O3_2 C15_2 1_555 1_555
O5_3 Co3 1_555 1_555
C4_2 C5_2 1_555 1_555
C5_2 H3_2 1_555 1_555
C6_2 C5_2 1_555 1_555
H4_2 C6_2 1_555 1_555
C8_2 C6_2 1_555 1_555
C10_2 C4_2 1_555 1_555
H7_2 C10_2 1_555 1_555
C12_2 C8_2 1_555 1_555
H8_2 C12_2 1_555 1_555
C15_2 C8_2 1_555 1_555
O10_3 Co3 1_555 1_555
O11_3 Co3 1_555 1_555
O13_3 Co3 1_555 1_555
C10_2 C12_2 1_555 1_555
O12_2 C16_2 1_555 1_555
O4_2 C16_2 1_555 1_555
C2_2 C3_2 1_555 1_555
C3_2 N1_2 1_555 1_555
N1_2 C1_2 1_555 1_555
C7_2 C2_2 1_555 1_555
H5_2 C7_2 1_555 1_555
C9_2 C2_2 1_555 1_555
H6_2 C9_2 1_555 1_555
C11_2 C13_2 1_555 1_555
C13_2 C7_2 1_555 1_555
H9_2 C13_2 1_555 1_555
C14_2 C9_2 1_555 1_555
H10_2 C14_2 1_555 1_555
C16_2 C11_2 1_555 1_555
C11_2 C14_2 1_555 1_555
O5_4 Co4 1_555 1_555
O10_4 Co4_2 1_555 1_555
O11_4 Co4_2 1_555 1_555
O13_4 Co4_2 1_555 1_555
O11_3 C15_3 1_555 1_555
O13_2 C16_3 1_555 1_555
O3_3 C15_3 1_555 1_555
O4_3 C16_3 1_555 1_555
C1_3 C4_3 1_555 1_555
C2_3 C3_3 1_555 1_555
C3_3 N1_3 1_555 1_555
C4_3 C5_3 1_555 1_555
C5_3 H3_3 1_555 1_555
N1_3 C1_3 1_555 1_555
C6_3 C5_3 1_555 1_555
H4_3 C6_3 1_555 1_555
C7_3 C2_3 1_555 1_555
H5_3 C7_3 1_555 1_555
C8_3 C6_3 1_555 1_555
C9_3 C2_3 1_555 1_555
H6_3 C9_3 1_555 1_555
C10_3 C4_3 1_555 1_555
H7_3 C10_3 1_555 1_555
C11_3 C13_3 1_555 1_555
C12_3 C8_3 1_555 1_555
H8_3 C12_3 1_555 1_555
C13_3 C7_3 1_555 1_555
H9_3 C13_3 1_555 1_555
C14_3 C9_3 1_555 1_555
H10_3 C14_3 1_555 1_555
C15_3 C8_3 1_555 1_555
C16_3 C11_3 1_555 1_555
C17_2 C1_3 1_555 1_555
C18_2 C19_2 1_555 1_555
C19_2 C3_3 1_555 1_555
C20_3 C17_2 1_555 1_555
N2_2 C17_2 1_555 1_555
C25_2 C18_2 1_555 1_555
H14_2 C25_2 1_555 1_555
C26_3 C20_3 1_555 1_555
H15_3 C26_3 1_555 1_555
H16_3 C28_3 1_555 1_555
C30_2 C25_2 1_555 1_555
H18_2 C30_2 1_555 1_555
C10_3 C12_3 1_555 1_555
C11_3 C14_3 1_555 1_555
C19_2 N2_2 1_555 1_555
C26_3 C28_3 1_555 1_555
O11_4 C31_3 1_555 1_555
O13 C32_3 1_555 1_555
O8_3 C31_3 1_555 1_555
O9_3 C32_3 1_555 1_555
H11_3 C21_3 1_555 1_555
C22_3 C21_3 1_555 1_555
H12_3 C22_3 1_555 1_555
H13_3 C23_3 1_555 1_555
C24_3 C22_3 1_555 1_555
C27_3 C29_3 1_555 1_555
C29_3 C23_3 1_555 1_555
H17_3 C29_3 1_555 1_555
C31_3 C24_3 1_555 1_555
C32_3 C27_3 1_555 1_555
O13_4 C16_4 1_555 1_555
O4_4 C16_4 1_555 1_555
C2_4 C3_4 1_555 1_555
C3_4 N1_4 1_555 1_555
N1_4 C1_4 1_555 1_555
C7_4 C2_4 1_555 1_555
H5_4 C7_4 1_555 1_555
C9_4 C2_4 1_555 1_555
H6_4 C9_4 1_555 1_555
C11_4 C13_4 1_555 1_555
C13_4 C7_4 1_555 1_555
H9_4 C13_4 1_555 1_555
C14_4 C9_4 1_555 1_555
H10_4 C14_4 1_555 1_555
C16_4 C11_4 1_555 1_555
C11_4 C14_4 1_555 1_555
O11 C15_4 1_555 1_555
O3_4 C15_4 1_555 1_555
C4_4 C5_4 1_555 1_555
C5_4 H3_4 1_555 1_555
C6_4 C5_4 1_555 1_555
H4_4 C6_4 1_555 1_555
C8_4 C6_4 1_555 1_555
C10_4 C4_4 1_555 1_555
H7_4 C10_4 1_555 1_555
C12_4 C8_4 1_555 1_555
H8_4 C12_4 1_555 1_555
C15_4 C8_4 1_555 1_555
C10_4 C12_4 1_555 1_555
O13_3 C32_4 1_555 1_555
O9_4 C32_4 1_555 1_555
H13_4 C23_4 1_555 1_555
C27_4 C29_4 1_555 1_555
C29_4 C23_4 1_555 1_555
H17_4 C29_4 1_555 1_555
C32_4 C27_4 1_555 1_555
C26_4 C20_4 1_555 1_555
H15_4 C26_4 1_555 1_555
H16_4 C28_4 1_555 1_555
C26_4 C28_4 1_555 1_555
O11_2 C31_4 1_555 1_555
O8_4 C31_4 1_555 1_555
H11_4 C21_4 1_555 1_555
C22_4 C21_4 1_555 1_555
H12_4 C22_4 1_555 1_555
C24_4 C22_4 1_555 1_555
C31_4 C24_4 1_555 1_555
C18_3 C19_3 1_555 1_555
N2_3 C17_3 1_555 1_555
C25_3 C18_3 1_555 1_555
H14_3 C25_3 1_555 1_555
C30_3 C25_3 1_555 1_555
H18_3 C30_3 1_555 1_555
C19_3 N2_3 1_555 1_555
C18_4 C19_4 1_555 1_555
N2_4 C17_4 1_555 1_555
C25_4 C18_4 1_555 1_555
H14_4 C25_4 1_555 1_555
C30_4 C25_4 1_555 1_555
H18_4 C30_4 1_555 1_555
C19_4 N2_4 1_555 1_555

#END
