
###############################################################################
#
# This file contains modified crystal structure data generated from the
# MOF subset of the Cambridge Structural Database (CSD) v542 
# hosted by the Cambridge Crystallographic Data Centre (CCDC).
#
# This work is licensed under the Creative Commons
# Attribution-NonCommercial-ShareAlike 4.0 International License.
# To view a copy of this license, visit
# http://creativecommons.org/licenses/by-nc-sa/4.0/
# or send a letter to
# Creative Commons, PO Box 1866, Mountain View, CA 94042, USA.
#
# CIF created using the CSD Python API on 22 February 2021
# The structure has been converted into the P1 space group
# The structure has a 3D framework
# The original CSD entry HULCEW is in the cubic crystal system
# The framework has been calculated to contain at least 10.0% void space
# The void calculation uses a probe of radius 1.32A, grid spacing 0.4
#
###############################################################################

data_HULCEW
_chemical_formula_moiety         '(C96 H96 Ni18 O144)n'
_symmetry_cell_setting           triclinic
_symmetry_space_group_name_H-M   'P 1'
_symmetry_Int_Tables_number      1
_space_group_name_Hall           'P 1'
loop_
_symmetry_equiv_pos_site_id
_symmetry_equiv_pos_as_xyz
1 x,y,z
_cell_length_a                   16.1467(8)
_cell_length_b                   16.1467(8)
_cell_length_c                   16.1467(8)
_cell_angle_alpha                90
_cell_angle_beta                 90
_cell_angle_gamma                90
_cell_volume                     4209.7
loop_
_atom_site_label
_atom_site_type_symbol
_atom_site_fract_x
_atom_site_fract_y
_atom_site_fract_z
Ni6 Ni 0.498248(16) 0.001752(16) 0.2500
Ni1 Ni 0.498248(16) 0.498248(16) 0.2500
C1 C 0.30983(15) 0.48345(14) 0.22750(14)
O1 O 0.38197(10) 0.48724(11) 0.19876(10)
C2 C 0.50071(15) 0.68953(15) 0.22847(15)
O2 O 0.50353(11) 0.61723(10) 0.20048(11)
O3 O 0.46163(10) 0.53619(10) 0.36349(10)
C3 C 0.22750(14) 0.48345(14) 0.19017(15)
C4 C 0.19017(15) 0.48345(14) 0.27250(14)
C5 C 0.27250(14) 0.48345(14) 0.30983(15)
O4 O 0.30124(10) 0.48724(11) 0.38197(10)
O5 O 0.11803(10) 0.48724(11) 0.30124(10)
O6 O 0.19876(10) 0.48724(11) 0.11803(10)
C6 C 0.49929(15) 0.77153(15) 0.18953(15)
C7 C 0.50071(15) 0.81047(15) 0.27153(15)
C8 C 0.49929(15) 0.72847(15) 0.31047(15)
O7 O 0.49647(11) 0.70048(11) 0.38277(10)
O8 O 0.50353(11) 0.88277(10) 0.29952(11)
O9 O 0.49647(11) 0.79952(11) 0.11723(10)
O10 O 0.53619(10) 0.46163(10) 0.13651(10)
Ni2 Ni 0.2500 0.498248(16) 0.498248(16)
O11 O 0.13651(10) 0.53619(10) 0.46163(10)
O12 O 0.36349(10) 0.46163(10) 0.53619(10)
O13 O 0.48724(11) 0.38197(10) 0.30124(10)
O14 O 0.61723(10) 0.50353(11) 0.29952(11)
Ni3 Ni 0.001752(16) 0.498248(16) 0.2500
Ni4 Ni 0.2500 0.498248(16) 0.001752(16)
Ni5 Ni 0.501752(16) 0.7500 0.501752(16)
O15 O 0.19876(10) 0.38197(10) 0.48724(11)
O16 O 0.20048(11) 0.50353(11) 0.61723(10)
O17 O 0.29952(11) 0.61723(10) 0.50353(11)
Ni7 Ni 0.501752(16) 0.7500 0.998248(16)
C1_2 C 0.22750(14) 0.30983(15) 0.48345(14)
C2_2 C 0.22847(15) 0.50071(15) 0.68953(15)
C3_2 C 0.19017(15) 0.22750(14) 0.48345(14)
C4_2 C 0.27250(14) 0.19017(15) 0.48345(14)
C5_2 C 0.30983(15) 0.27250(14) 0.48345(14)
O4_2 O 0.38197(10) 0.30124(10) 0.48724(11)
O5_2 O 0.30124(10) 0.11803(10) 0.48724(11)
O6_2 O 0.11803(10) 0.19876(10) 0.48724(11)
C6_2 C 0.18953(15) 0.49929(15) 0.77153(15)
C7_2 C 0.27153(15) 0.50071(15) 0.81047(15)
C8_2 C 0.31047(15) 0.49929(15) 0.72847(15)
O7_2 O 0.38277(10) 0.49647(11) 0.70048(11)
O8_2 O 0.29952(11) 0.50353(11) 0.88277(10)
O9_2 O 0.11723(10) 0.49647(11) 0.79952(11)
Ni2_2 Ni 0.498248(16) 0.2500 0.498248(16)
O11_2 O 0.46163(10) 0.13651(10) 0.53619(10)
O12_2 O 0.53619(10) 0.36349(10) 0.46163(10)
Ni3_2 Ni 0.2500 0.001752(16) 0.498248(16)
Ni4_2 Ni 0.001752(16) 0.2500 0.498248(16)
Ni5_2 Ni 0.501752(16) 0.501752(16) 0.7500
O15_2 O 0.48724(11) 0.19876(10) 0.38197(10)
O16_2 O 0.61723(10) 0.20048(11) 0.50353(11)
O17_2 O 0.50353(11) 0.29952(11) 0.61723(10)
Ni7_2 Ni 0.998248(16) 0.501752(16) 0.7500
C1_3 C 0.48345(14) 0.22750(14) 0.30983(15)
C2_3 C 0.68953(15) 0.22847(15) 0.50071(15)
C3_3 C 0.48345(14) 0.19017(15) 0.22750(14)
C4_3 C 0.48345(14) 0.27250(14) 0.19017(15)
C5_3 C 0.48345(14) 0.30983(15) 0.27250(14)
O5_3 O 0.48724(11) 0.30124(10) 0.11803(10)
O6_3 O 0.48724(11) 0.11803(10) 0.19876(10)
C6_3 C 0.77153(15) 0.18953(15) 0.49929(15)
C7_3 C 0.81047(15) 0.27153(15) 0.50071(15)
C8_3 C 0.72847(15) 0.31047(15) 0.49929(15)
O7_3 O 0.70048(11) 0.38277(10) 0.49647(11)
O8_3 O 0.88277(10) 0.29952(11) 0.50353(11)
O9_3 O 0.79952(11) 0.11723(10) 0.49647(11)
Ni3_3 Ni 0.498248(16) 0.2500 0.001752(16)
Ni5_3 Ni 0.7500 0.501752(16) 0.501752(16)
Ni7_3 Ni 0.7500 0.998248(16) 0.501752(16)
C2_4 C 0.68953(15) 0.50071(15) 0.27153(15)
C6_4 C 0.77153(15) 0.49929(15) 0.31047(15)
C7_4 C 0.81047(15) 0.50071(15) 0.22847(15)
C8_4 C 0.72847(15) 0.49929(15) 0.18953(15)
O7_4 O 0.70048(11) 0.49647(11) 0.11723(10)
O8_4 O 0.88277(10) 0.50353(11) 0.20048(11)
O9_4 O 0.79952(11) 0.49647(11) 0.38277(10)
O11_3 O 0.53619(10) 0.13651(10) 0.03837(10)
O15_3 O 0.38197(10) 0.19876(10) 0.01276(11)
O12_3 O 0.46163(10) 0.36349(10) 0.96381(10)
Ni5_4 Ni 0.7500 0.501752(16) 0.998248(16)
O16_3 O 0.50353(11) 0.20048(11) 0.88277(10)
O17_3 O 0.61723(10) 0.29952(11) 0.99647(11)
Ni6_2 Ni 0.001752(16) 0.001752(16) 0.2500
O3_2 O 0.53619(10) 0.03837(10) 0.36349(10)
C6_5 C 0.77153(15) 0.00071(15) 0.18953(15)
C8_5 C 0.72847(15) 0.00071(15) 0.31047(15)
O7_5 O 0.70048(11) 0.00353(11) 0.38277(10)
O9_5 O 0.79952(11) 0.00353(11) 0.11723(10)
O13_2 O 0.38197(10) 0.01276(11) 0.30124(10)
C2_5 C 0.68953(15) 0.99929(15) 0.22847(15)
O2_2 O 0.61723(10) 0.99647(11) 0.20048(11)
C7_5 C 0.81047(15) 0.99929(15) 0.27153(15)
O8_5 O 0.88277(10) 0.99647(11) 0.29952(11)
O10_2 O 0.46163(10) 0.96381(10) 0.13651(10)
Ni7_4 Ni 0.7500 0.998248(16) 0.998248(16)
C1_4 C 0.01655(14) 0.30983(15) 0.22750(14)
O1_2 O 0.01276(11) 0.38197(10) 0.19876(10)
C3_4 C 0.01655(14) 0.22750(14) 0.19017(15)
C4_4 C 0.01655(14) 0.19017(15) 0.27250(14)
C5_4 C 0.01655(14) 0.27250(14) 0.30983(15)
O4_3 O 0.01276(11) 0.30124(10) 0.38197(10)
O5_4 O 0.01276(11) 0.11803(10) 0.30124(10)
O6_4 O 0.01276(11) 0.19876(10) 0.11803(10)
O10_3 O 0.03837(10) 0.53619(10) 0.13651(10)
O12_4 O 0.03837(10) 0.36349(10) 0.53619(10)
Ni4_3 Ni 0.001752(16) 0.2500 0.001752(16)
O3_3 O 0.96381(10) 0.46163(10) 0.36349(10)
O11_4 O 0.96381(10) 0.13651(10) 0.46163(10)
O14_2 O 0.99647(11) 0.61723(10) 0.29952(11)
O16_4 O 0.99647(11) 0.20048(11) 0.61723(10)
C1_5 C 0.30983(15) 0.22750(14) 0.01655(14)
C3_5 C 0.22750(14) 0.19017(15) 0.01655(14)
C4_5 C 0.19017(15) 0.27250(14) 0.01655(14)
C5_5 C 0.27250(14) 0.30983(15) 0.01655(14)
O4_4 O 0.30124(10) 0.38197(10) 0.01276(11)
O5_5 O 0.11803(10) 0.30124(10) 0.01276(11)
O6_5 O 0.19876(10) 0.11803(10) 0.01276(11)
O12_5 O 0.36349(10) 0.53619(10) 0.03837(10)
Ni4_4 Ni 0.2500 0.001752(16) 0.001752(16)
C2_6 C 0.50071(15) 0.22847(15) 0.81047(15)
C6_6 C 0.49929(15) 0.18953(15) 0.72847(15)
C7_6 C 0.50071(15) 0.27153(15) 0.68953(15)
C8_6 C 0.49929(15) 0.31047(15) 0.77153(15)
O7_6 O 0.49647(11) 0.38277(10) 0.79952(11)
O9_6 O 0.49647(11) 0.11723(10) 0.70048(11)
O11_5 O 0.13651(10) 0.46163(10) 0.96381(10)
O16_5 O 0.20048(11) 0.61723(10) 0.99647(11)
Ni7_5 Ni 0.501752(16) 0.998248(16) 0.7500
C6_7 C 0.00071(15) 0.18953(15) 0.77153(15)
C8_7 C 0.00071(15) 0.31047(15) 0.72847(15)
O7_7 O 0.00353(11) 0.38277(10) 0.70048(11)
O9_7 O 0.00353(11) 0.11723(10) 0.79952(11)
C2_7 C 0.99929(15) 0.22847(15) 0.68953(15)
C7_7 C 0.99929(15) 0.27153(15) 0.81047(15)
O8_6 O 0.99647(11) 0.29952(11) 0.88277(10)
Ni7_6 Ni 0.998248(16) 0.998248(16) 0.7500
O11_6 O 0.13651(10) 0.03837(10) 0.53619(10)
O15_4 O 0.19876(10) 0.01276(11) 0.38197(10)
O12_6 O 0.36349(10) 0.96381(10) 0.46163(10)
O16_6 O 0.20048(11) 0.88277(10) 0.50353(11)
O17_4 O 0.29952(11) 0.99647(11) 0.61723(10)
C6_8 C 0.18953(15) 0.77153(15) 0.00071(15)
C8_8 C 0.31047(15) 0.72847(15) 0.00071(15)
O7_8 O 0.38277(10) 0.70048(11) 0.00353(11)
O9_8 O 0.11723(10) 0.79952(11) 0.00353(11)
C2_8 C 0.22847(15) 0.68953(15) 0.99929(15)
C7_8 C 0.27153(15) 0.81047(15) 0.99929(15)
O8_7 O 0.29952(11) 0.88277(10) 0.99647(11)
Ni7_7 Ni 0.998248(16) 0.7500 0.998248(16)
C1_6 C 0.22750(14) 0.01655(14) 0.30983(15)
C3_6 C 0.19017(15) 0.01655(14) 0.22750(14)
C4_6 C 0.27250(14) 0.01655(14) 0.19017(15)
C5_6 C 0.30983(15) 0.01655(14) 0.27250(14)
O5_6 O 0.30124(10) 0.01276(11) 0.11803(10)
O6_6 O 0.11803(10) 0.01276(11) 0.19876(10)
C2_9 C 0.22847(15) 0.81047(15) 0.50071(15)
C6_9 C 0.18953(15) 0.72847(15) 0.49929(15)
C7_9 C 0.27153(15) 0.68953(15) 0.50071(15)
C8_9 C 0.31047(15) 0.77153(15) 0.49929(15)
O7_9 O 0.38277(10) 0.79952(11) 0.49647(11)
O9_9 O 0.11723(10) 0.70048(11) 0.49647(11)
Ni7_8 Ni 0.998248(16) 0.7500 0.501752(16)
O3_4 O 0.03837(10) 0.96381(10) 0.36349(10)
C6_10 C 0.00071(15) 0.72847(15) 0.18953(15)
C8_10 C 0.00071(15) 0.77153(15) 0.31047(15)
O7_10 O 0.00353(11) 0.79952(11) 0.38277(10)
O9_10 O 0.00353(11) 0.70048(11) 0.11723(10)
O10_4 O 0.96381(10) 0.03837(10) 0.13651(10)
C2_10 C 0.99929(15) 0.81047(15) 0.22847(15)
O2_3 O 0.99647(11) 0.88277(10) 0.20048(11)
C7_10 C 0.99929(15) 0.68953(15) 0.27153(15)
O12_7 O 0.36349(10) 0.03837(10) 0.96381(10)
O11_7 O 0.13651(10) 0.96381(10) 0.03837(10)
O16_7 O 0.20048(11) 0.99647(11) 0.88277(10)
C6_11 C 0.18953(15) 0.00071(15) 0.72847(15)
C8_11 C 0.31047(15) 0.00071(15) 0.77153(15)
O7_11 O 0.38277(10) 0.00353(11) 0.79952(11)
O9_11 O 0.11723(10) 0.00353(11) 0.70048(11)
C2_11 C 0.22847(15) 0.99929(15) 0.81047(15)
C7_11 C 0.27153(15) 0.99929(15) 0.68953(15)
O11_8 O 0.03837(10) 0.13651(10) 0.96381(10)
O12_8 O 0.96381(10) 0.36349(10) 0.03837(10)
O16_8 O 0.88277(10) 0.20048(11) 0.99647(11)
C6_12 C 0.72847(15) 0.18953(15) 0.00071(15)
C8_12 C 0.77153(15) 0.31047(15) 0.00071(15)
O7_12 O 0.79952(11) 0.38277(10) 0.00353(11)
O9_12 O 0.70048(11) 0.11723(10) 0.00353(11)
C2_12 C 0.81047(15) 0.22847(15) 0.99929(15)
C7_12 C 0.68953(15) 0.27153(15) 0.99929(15)
C1_7 C 0.69017(15) 0.51655(14) 0.77250(14)
O1_3 O 0.61803(10) 0.51276(11) 0.80124(10)
O3_5 O 0.53837(10) 0.46381(10) 0.63651(10)
C3_7 C 0.77250(14) 0.51655(14) 0.80983(15)
C4_7 C 0.80983(15) 0.51655(14) 0.72750(14)
C5_7 C 0.72750(14) 0.51655(14) 0.69017(15)
O4_5 O 0.69876(10) 0.51276(11) 0.61803(10)
O5_7 O 0.88197(10) 0.51276(11) 0.69876(10)
O6_7 O 0.80124(10) 0.51276(11) 0.88197(10)
O10_5 O 0.46381(10) 0.53837(10) 0.86349(10)
O11_9 O 0.86349(10) 0.46381(10) 0.53837(10)
O12_9 O 0.63651(10) 0.53837(10) 0.46381(10)
O13_3 O 0.51276(11) 0.61803(10) 0.69876(10)
O15_5 O 0.80124(10) 0.61803(10) 0.51276(11)
C1_8 C 0.77250(14) 0.69017(15) 0.51655(14)
C3_8 C 0.80983(15) 0.77250(14) 0.51655(14)
C4_8 C 0.72750(14) 0.80983(15) 0.51655(14)
C5_8 C 0.69017(15) 0.72750(14) 0.51655(14)
O4_6 O 0.61803(10) 0.69876(10) 0.51276(11)
O5_8 O 0.69876(10) 0.88197(10) 0.51276(11)
O6_8 O 0.88197(10) 0.80124(10) 0.51276(11)
O11_10 O 0.53837(10) 0.86349(10) 0.46381(10)
O12_10 O 0.46381(10) 0.63651(10) 0.53837(10)
O15_6 O 0.51276(11) 0.80124(10) 0.61803(10)
C1_9 C 0.51655(14) 0.77250(14) 0.69017(15)
C3_9 C 0.51655(14) 0.80983(15) 0.77250(14)
C4_9 C 0.51655(14) 0.72750(14) 0.80983(15)
C5_9 C 0.51655(14) 0.69017(15) 0.72750(14)
O5_9 O 0.51276(11) 0.69876(10) 0.88197(10)
O6_9 O 0.51276(11) 0.88197(10) 0.80124(10)
O12_11 O 0.53837(10) 0.63651(10) 0.03619(10)
O11_11 O 0.46381(10) 0.86349(10) 0.96163(10)
O15_7 O 0.61803(10) 0.80124(10) 0.98724(11)
O10_6 O 0.53837(10) 0.03619(10) 0.86349(10)
O3_6 O 0.46381(10) 0.96163(10) 0.63651(10)
O13_4 O 0.61803(10) 0.98724(11) 0.69876(10)
O3_7 O 0.03619(10) 0.53837(10) 0.63651(10)
O11_12 O 0.03619(10) 0.86349(10) 0.53837(10)
C1_10 C 0.98345(14) 0.69017(15) 0.77250(14)
O1_4 O 0.98724(11) 0.61803(10) 0.80124(10)
C3_10 C 0.98345(14) 0.77250(14) 0.80983(15)
C4_10 C 0.98345(14) 0.80983(15) 0.72750(14)
C5_10 C 0.98345(14) 0.72750(14) 0.69017(15)
O4_7 O 0.98724(11) 0.69876(10) 0.61803(10)
O5_10 O 0.98724(11) 0.88197(10) 0.69876(10)
O6_10 O 0.98724(11) 0.80124(10) 0.88197(10)
O10_7 O 0.96163(10) 0.46381(10) 0.86349(10)
O12_12 O 0.96163(10) 0.63651(10) 0.46381(10)
O11_13 O 0.86349(10) 0.53837(10) 0.03619(10)
C1_11 C 0.69017(15) 0.77250(14) 0.98345(14)
C3_11 C 0.77250(14) 0.80983(15) 0.98345(14)
C4_11 C 0.80983(15) 0.72750(14) 0.98345(14)
C5_11 C 0.72750(14) 0.69017(15) 0.98345(14)
O4_8 O 0.69876(10) 0.61803(10) 0.98724(11)
O5_11 O 0.88197(10) 0.69876(10) 0.98724(11)
O6_11 O 0.80124(10) 0.88197(10) 0.98724(11)
O12_13 O 0.63651(10) 0.46381(10) 0.96163(10)
O12_14 O 0.63651(10) 0.03619(10) 0.53837(10)
O11_14 O 0.86349(10) 0.96163(10) 0.46381(10)
O15_8 O 0.80124(10) 0.98724(11) 0.61803(10)
C1_12 C 0.77250(14) 0.98345(14) 0.69017(15)
C3_12 C 0.80983(15) 0.98345(14) 0.77250(14)
C4_12 C 0.72750(14) 0.98345(14) 0.80983(15)
C5_12 C 0.69017(15) 0.98345(14) 0.72750(14)
O5_12 O 0.69876(10) 0.98724(11) 0.88197(10)
O6_12 O 0.88197(10) 0.98724(11) 0.80124(10)
O10_8 O 0.03619(10) 0.96163(10) 0.86349(10)
O3_8 O 0.96163(10) 0.03619(10) 0.63651(10)
O11_15 O 0.86349(10) 0.03619(10) 0.96163(10)
O12_15 O 0.63651(10) 0.96163(10) 0.03619(10)
O12_16 O 0.03619(10) 0.63651(10) 0.96163(10)
O11_16 O 0.96163(10) 0.86349(10) 0.03619(10)
loop_
_geom_bond_atom_site_label_1
_geom_bond_atom_site_label_2
_geom_bond_site_symmetry_1
_geom_bond_site_symmetry_2
Ni1 O1 1_555 1_555
C1 O1 1_555 1_555
C2 O2 1_555 1_555
O2 Ni1 1_555 1_555
O3 Ni1 1_555 1_555
C3 C1 1_555 1_555
C4 C3 1_555 1_555
C5 C1 1_555 1_555
O4 C5 1_555 1_555
O5 C4 1_555 1_555
O6 C3 1_555 1_555
C6 C2 1_555 1_555
C7 C6 1_555 1_555
C8 C2 1_555 1_555
O7 C8 1_555 1_555
O8 C7 1_555 1_555
O9 C6 1_555 1_555
O10 Ni1 1_555 1_555
Ni2 O4 1_555 1_555
O11 Ni2 1_555 1_555
O12 Ni2 1_555 1_555
O13 Ni1 1_555 1_555
O14 Ni1 1_555 1_555
Ni3 O5 1_555 1_555
Ni4 O6 1_555 1_555
Ni5 O7 1_555 1_555
O15 Ni2 1_555 1_555
O16 Ni2 1_555 1_555
O17 Ni2 1_555 1_555
C4 C5 1_555 1_555
C7 C8 1_555 1_555
C1_2 O15 1_555 1_555
C2_2 O16 1_555 1_555
C3_2 C1_2 1_555 1_555
C4_2 C3_2 1_555 1_555
C5_2 C1_2 1_555 1_555
O4_2 C5_2 1_555 1_555
O5_2 C4_2 1_555 1_555
O6_2 C3_2 1_555 1_555
C6_2 C2_2 1_555 1_555
C7_2 C6_2 1_555 1_555
C8_2 C2_2 1_555 1_555
O7_2 C8_2 1_555 1_555
O8_2 C7_2 1_555 1_555
O9_2 C6_2 1_555 1_555
Ni2_2 O4_2 1_555 1_555
O11_2 Ni2_2 1_555 1_555
O12_2 Ni2_2 1_555 1_555
Ni3_2 O5_2 1_555 1_555
Ni4_2 O6_2 1_555 1_555
Ni5_2 O7_2 1_555 1_555
O15_2 Ni2_2 1_555 1_555
O16_2 Ni2_2 1_555 1_555
O17_2 Ni2_2 1_555 1_555
C4_2 C5_2 1_555 1_555
C7_2 C8_2 1_555 1_555
C1_3 O15_2 1_555 1_555
C2_3 O16_2 1_555 1_555
C3_3 C1_3 1_555 1_555
C4_3 C3_3 1_555 1_555
C5_3 C1_3 1_555 1_555
O13 C5_3 1_555 1_555
O5_3 C4_3 1_555 1_555
O6_3 C3_3 1_555 1_555
C6_3 C2_3 1_555 1_555
C7_3 C6_3 1_555 1_555
C8_3 C2_3 1_555 1_555
O7_3 C8_3 1_555 1_555
O8_3 C7_3 1_555 1_555
O9_3 C6_3 1_555 1_555
Ni3_3 O5_3 1_555 1_555
Ni6 O6_3 1_555 1_555
Ni5_3 O7_3 1_555 1_555
C4_3 C5_3 1_555 1_555
C7_3 C8_3 1_555 1_555
C2_4 O14 1_555 1_555
C6_4 C2_4 1_555 1_555
C7_4 C6_4 1_555 1_555
C8_4 C2_4 1_555 1_555
O7_4 C8_4 1_555 1_555
O8_4 C7_4 1_555 1_555
O9_4 C6_4 1_555 1_555
O11_3 Ni3_3 1_555 1_555
Ni5_3 O9_4 1_555 1_555
O15_3 Ni3_3 1_555 1_555
C7_4 C8_4 1_555 1_555
O3_2 Ni6 1_555 1_555
O7_5 C8_5 1_555 1_555
O9_5 C6_5 1_555 1_555
O13_2 Ni6 1_555 1_555
C2_5 O2_2 1_555 1_555
O8_5 C7_5 1_555 1_555
Ni3 O1_2 1_555 1_555
C1_4 O1_2 1_555 1_555
C3_4 C1_4 1_555 1_555
C4_4 C3_4 1_555 1_555
C5_4 C1_4 1_555 1_555
O4_3 C5_4 1_555 1_555
O5_4 C4_4 1_555 1_555
O6_4 C3_4 1_555 1_555
O10_3 Ni3 1_555 1_555
Ni4_2 O4_3 1_555 1_555
O12_4 Ni4_2 1_555 1_555
Ni6_2 O5_4 1_555 1_555
Ni4_3 O6_4 1_555 1_555
C4_4 C5_4 1_555 1_555
C1_5 O15_3 1_555 1_555
C3_5 C1_5 1_555 1_555
C4_5 C3_5 1_555 1_555
C5_5 C1_5 1_555 1_555
O4_4 C5_5 1_555 1_555
O5_5 C4_5 1_555 1_555
O6_5 C3_5 1_555 1_555
Ni4 O4_4 1_555 1_555
O12_5 Ni4 1_555 1_555
Ni4_3 O5_5 1_555 1_555
Ni4_4 O6_5 1_555 1_555
C4_5 C5_5 1_555 1_555
C2_6 O16_3 1_555 1_555
C6_6 C2_6 1_555 1_555
C7_6 C6_6 1_555 1_555
C8_6 C2_6 1_555 1_555
O7_6 C8_6 1_555 1_555
O17_2 C7_6 1_555 1_555
O9_6 C6_6 1_555 1_555
Ni5_2 O7_6 1_555 1_555
C7_6 C8_6 1_555 1_555
O7_7 C8_7 1_555 1_555
O9_7 C6_7 1_555 1_555
C2_7 O16_4 1_555 1_555
O8_6 C7_7 1_555 1_555
O11_6 Ni3_2 1_555 1_555
O15_4 Ni3_2 1_555 1_555
O7_8 C8_8 1_555 1_555
O9_8 C6_8 1_555 1_555
C2_8 O16_5 1_555 1_555
O8_7 C7_8 1_555 1_555
C1_6 O15_4 1_555 1_555
C3_6 C1_6 1_555 1_555
C4_6 C3_6 1_555 1_555
C5_6 C1_6 1_555 1_555
O13_2 C5_6 1_555 1_555
O5_6 C4_6 1_555 1_555
O6_6 C3_6 1_555 1_555
Ni4_4 O5_6 1_555 1_555
Ni6_2 O6_6 1_555 1_555
C4_6 C5_6 1_555 1_555
C2_9 O16_6 1_555 1_555
C6_9 C2_9 1_555 1_555
C7_9 C6_9 1_555 1_555
C8_9 C2_9 1_555 1_555
O7_9 C8_9 1_555 1_555
O17 C7_9 1_555 1_555
O9_9 C6_9 1_555 1_555
Ni5 O7_9 1_555 1_555
C7_9 C8_9 1_555 1_555
O7_10 C8_10 1_555 1_555
O9_10 C6_10 1_555 1_555
C2_10 O2_3 1_555 1_555
O14_2 C7_10 1_555 1_555
O7_11 C8_11 1_555 1_555
O9_11 C6_11 1_555 1_555
C2_11 O16_7 1_555 1_555
O17_4 C7_11 1_555 1_555
O7_12 C8_12 1_555 1_555
O9_12 C6_12 1_555 1_555
C2_12 O16_8 1_555 1_555
O17_3 C7_12 1_555 1_555
Ni5_2 O1_3 1_555 1_555
C1_7 O1_3 1_555 1_555
O3_5 Ni5_2 1_555 1_555
C3_7 C1_7 1_555 1_555
C4_7 C3_7 1_555 1_555
C5_7 C1_7 1_555 1_555
O4_5 C5_7 1_555 1_555
O5_7 C4_7 1_555 1_555
O6_7 C3_7 1_555 1_555
O10_5 Ni5_2 1_555 1_555
Ni5_3 O4_5 1_555 1_555
O11_9 Ni5_3 1_555 1_555
O12_9 Ni5_3 1_555 1_555
O13_3 Ni5_2 1_555 1_555
Ni7_2 O5_7 1_555 1_555
Ni5_4 O6_7 1_555 1_555
O15_5 Ni5_3 1_555 1_555
C4_7 C5_7 1_555 1_555
C1_8 O15_5 1_555 1_555
C3_8 C1_8 1_555 1_555
C4_8 C3_8 1_555 1_555
C5_8 C1_8 1_555 1_555
O4_6 C5_8 1_555 1_555
O5_8 C4_8 1_555 1_555
O6_8 C3_8 1_555 1_555
Ni5 O4_6 1_555 1_555
O11_10 Ni5 1_555 1_555
O12_10 Ni5 1_555 1_555
Ni7_3 O5_8 1_555 1_555
Ni7_8 O6_8 1_555 1_555
O15_6 Ni5 1_555 1_555
C4_8 C5_8 1_555 1_555
C1_9 O15_6 1_555 1_555
C3_9 C1_9 1_555 1_555
C4_9 C3_9 1_555 1_555
C5_9 C1_9 1_555 1_555
O13_3 C5_9 1_555 1_555
O5_9 C4_9 1_555 1_555
O6_9 C3_9 1_555 1_555
Ni7 O5_9 1_555 1_555
Ni7_5 O6_9 1_555 1_555
C4_9 C5_9 1_555 1_555
O11_11 Ni7 1_555 1_555
O15_7 Ni7 1_555 1_555
O3_6 Ni7_5 1_555 1_555
O13_4 Ni7_5 1_555 1_555
Ni7_2 O1_4 1_555 1_555
C1_10 O1_4 1_555 1_555
C3_10 C1_10 1_555 1_555
C4_10 C3_10 1_555 1_555
C5_10 C1_10 1_555 1_555
O4_7 C5_10 1_555 1_555
O5_10 C4_10 1_555 1_555
O6_10 C3_10 1_555 1_555
O10_7 Ni7_2 1_555 1_555
Ni7_8 O4_7 1_555 1_555
O12_12 Ni7_8 1_555 1_555
Ni7_6 O5_10 1_555 1_555
Ni7_7 O6_10 1_555 1_555
C4_10 C5_10 1_555 1_555
C1_11 O15_7 1_555 1_555
C3_11 C1_11 1_555 1_555
C4_11 C3_11 1_555 1_555
C5_11 C1_11 1_555 1_555
O4_8 C5_11 1_555 1_555
O5_11 C4_11 1_555 1_555
O6_11 C3_11 1_555 1_555
Ni5_4 O4_8 1_555 1_555
O12_13 Ni5_4 1_555 1_555
Ni7_7 O5_11 1_555 1_555
Ni7_4 O6_11 1_555 1_555
C4_11 C5_11 1_555 1_555
O11_14 Ni7_3 1_555 1_555
O15_8 Ni7_3 1_555 1_555
C1_12 O15_8 1_555 1_555
C3_12 C1_12 1_555 1_555
C4_12 C3_12 1_555 1_555
C5_12 C1_12 1_555 1_555
O13_4 C5_12 1_555 1_555
O5_12 C4_12 1_555 1_555
O6_12 C3_12 1_555 1_555
Ni7_4 O5_12 1_555 1_555
Ni7_6 O6_12 1_555 1_555
C4_12 C5_12 1_555 1_555

#END
