
###############################################################################
#
# This file contains modified crystal structure data generated from the
# MOF subset of the Cambridge Structural Database (CSD) v542 
# hosted by the Cambridge Crystallographic Data Centre (CCDC).
#
# This work is licensed under the Creative Commons
# Attribution-NonCommercial-ShareAlike 4.0 International License.
# To view a copy of this license, visit
# http://creativecommons.org/licenses/by-nc-sa/4.0/
# or send a letter to
# Creative Commons, PO Box 1866, Mountain View, CA 94042, USA.
#
# CIF created using the CSD Python API on 22 February 2021
# The structure has been converted into the P1 space group
# The structure has a 3D framework
# The original CSD entry IHUCOG is in the monoclinic crystal system
# The framework has been calculated to contain at least 10.0% void space
# The void calculation uses a probe of radius 1.32A, grid spacing 0.4
#
###############################################################################

data_IHUCOG
_chemical_formula_moiety         '(C88 H80 Co12 O64 S12)n'
_symmetry_cell_setting           triclinic
_symmetry_space_group_name_H-M   'P 1'
_symmetry_Int_Tables_number      1
_space_group_name_Hall           'P 1'
loop_
_symmetry_equiv_pos_site_id
_symmetry_equiv_pos_as_xyz
1 x,y,z
_cell_length_a                   12.6351(3)
_cell_length_b                   16.98670(10)
_cell_length_c                   20.7416(2)
_cell_angle_alpha                90
_cell_angle_beta                 121.629(2)
_cell_angle_gamma                90
_cell_volume                     3790.49
loop_
_atom_site_label
_atom_site_type_symbol
_atom_site_fract_x
_atom_site_fract_y
_atom_site_fract_z
O6 O 0.75202(10) 0.63198(7) 0.01549(6)
C21 C 0.57000(17) 0.55426(12) 0.05562(9)
H17 H 0.524167 0.557652 0.081157
H18 H 0.641444 0.588901 0.081442
O19 O 0.50774(11) 0.42137(8) 0.02144(7)
C26 C 0.61193(16) 0.47299(12) 0.05879(10)
H27 H 0.665093 0.456963 0.111191
H28 H 0.659911 0.469950 0.034599
Co15 Co 0.42501(2) 0.34796(2) 0.07815(2)
Co1 Co 0.27324(2) 0.67878(2) 0.76781(2)
Co3 Co 0.57499(2) 0.65204(2) 0.92185(2)
S1 S 0.07752(3) 0.43874(2) 0.80322(2)
S2 S 0.23627(3) 0.73804(3) 0.48592(2)
S3 S 0.56398(4) 0.40889(3) 0.77957(2)
O1 O 0.15592(10) 0.58751(7) 0.76417(6)
O5 O 0.05615(10) 0.28849(7) 0.87535(6)
O8 O 0.24266(10) 0.64816(7) 0.66030(6)
O9 O 0.09458(10) 0.70986(8) 0.55841(6)
O10 O 0.51806(10) 0.75703(8) 0.46121(6)
O11 O 0.32041(10) 0.78839(8) 0.38270(6)
O12 O 0.42787(9) 0.59452(7) 0.81829(6)
O13 O 0.61665(10) 0.55021(7) 0.87229(7)
O14 O 0.39082(10) 0.23922(7) 0.63788(6)
O15 O 0.58990(10) 0.26347(7) 0.71865(7)
O17 O 0.49226(11) 0.57863(8) 0.97856(7)
C1 C 0.04846(13) 0.56915(10) 0.71372(8)
C7 C 0.20180(14) 0.68583(10) 0.60003(8)
C8 C 0.28760(14) 0.70139(11) 0.57437(8)
C9 C 0.41053(15) 0.68857(13) 0.61301(10)
H9 H 0.454562 0.668300 0.661904
C10 C 0.46527(16) 0.70904(13) 0.57171(10)
H10 H 0.550064 0.705158 0.590693
C11 C 0.38174(14) 0.73512(11) 0.50117(9)
C12 C 0.40630(14) 0.76210(10) 0.44324(9)
C13 C 0.50570(14) 0.54540(9) 0.82180(8)
C14 C 0.46228(14) 0.48023(10) 0.76882(9)
C15 C 0.34683(16) 0.46462(11) 0.71124(11)
H11 H 0.279447 0.497831 0.696727
C16 C 0.33827(17) 0.39329(11) 0.67533(11)
H12 H 0.264882 0.373610 0.634518
C17 C 0.44925(15) 0.35620(10) 0.70686(9)
C18 C 0.48046(14) 0.28082(10) 0.68725(9)
H13 H 0.013640 0.613240 0.446312
C22 C 0.38807(16) 0.52701(12) 0.94121(10)
H19 H 0.334907 0.543037 0.888809
H20 H 0.340089 0.530050 0.965401
O18 O 0.06585(10) 0.43276(7) 0.50240(7)
C23 C 0.01123(15) 0.43861(11) 0.54689(9)
H22 H 0.071448 0.459491 0.596448
C24 C 0.09965(16) 0.50854(11) 0.49109(10)
H23 H 0.161468 0.530909 0.539537
H24 H 0.136126 0.504416 0.460112
C25 C 0.43000(17) 0.44574(12) 0.94438(9)
H25 H 0.475833 0.442348 0.918843
H26 H 0.358556 0.411099 0.918558
Co5 Co 0.05674(2) 0.31748(2) 0.43257(2)
O21 O 0.14711(10) 0.26308(7) 0.54396(6)
O22 O 0.01972(10) 0.39649(7) 0.34799(6)
O23 O 0.25075(11) 0.33185(8) 0.45987(8)
O26 O 0.13674(11) 0.73507(7) 0.21689(7)
C28 C 0.00598(14) 0.50107(10) 0.27318(8)
C29 C 0.12393(15) 0.52657(11) 0.31780(10)
H35 H 0.183354 0.500861 0.361626
C30 C 0.14686(15) 0.59552(11) 0.29107(10)
H36 H 0.223525 0.620813 0.315269
C31 C 0.04648(14) 0.62215(10) 0.22631(8)
C32 C 0.04215(13) 0.69483(10) 0.18661(8)
Co8 Co 0.72676(2) 0.17878(2) 0.73219(2)
Co10 Co 0.27324(2) 0.82122(2) 0.26781(2)
Co11 Co 0.05674(2) 0.18252(2) 0.93257(2)
Co14 Co 0.42501(2) 0.15204(2) 0.57815(2)
Co17 Co 0.57499(2) 0.84796(2) 0.42185(2)
O36 O 0.05615(10) 0.21151(7) 0.37535(6)
O37 O 0.13674(11) 0.76493(7) 0.71689(7)
O40 O 0.51806(10) 0.74297(8) 0.96121(6)
O42 O 0.32041(10) 0.71161(8) 0.88270(6)
O43 O 0.60918(10) 0.73922(7) 0.86212(6)
O45 O 0.41010(10) 0.76347(7) 0.78135(7)
Co2 Co 0.94326(2) 0.68252(2) 0.56743(2)
O2 O 0.85289(10) 0.73692(7) 0.45604(6)
O3 O 0.98028(10) 0.60351(7) 0.65201(6)
O4 O 0.74925(11) 0.66815(8) 0.54013(8)
O7 O 0.86326(11) 0.26493(7) 0.78311(7)
O16 O 0.93415(10) 0.56724(7) 0.49760(7)
C2 C 0.99402(14) 0.49893(10) 0.72682(8)
C3 C 0.87607(15) 0.47343(11) 0.68220(10)
H7 H 0.816646 0.499139 0.638374
C4 C 0.85314(15) 0.40448(11) 0.70893(10)
H8 H 0.776475 0.379187 0.684731
C5 C 0.95352(14) 0.37785(10) 0.77369(8)
C6 C 0.95785(13) 0.30517(10) 0.81339(8)
C19 C 0.98877(15) 0.56139(11) 0.45311(9)
H14 H 0.928552 0.540509 0.403552
C20 C 0.90035(16) 0.49146(11) 0.50891(10)
H15 H 0.838532 0.469091 0.460463
H16 H 0.863874 0.495584 0.539888
H21 H 0.986360 0.386760 0.553688
Co4 Co 0.72676(2) 0.32122(2) 0.23219(2)
S4 S 0.92248(3) 0.56126(2) 0.19678(2)
S5 S 0.76373(3) 0.26196(3) 0.51408(2)
S6 S 0.43602(4) 0.59111(3) 0.22043(2)
O20 O 0.84408(10) 0.41249(7) 0.23583(6)
O24 O 0.94385(10) 0.71151(7) 0.12465(6)
O27 O 0.75734(10) 0.35184(7) 0.33970(6)
O28 O 0.90542(10) 0.29014(8) 0.44159(6)
O29 O 0.48194(10) 0.24297(8) 0.53879(6)
O30 O 0.67959(10) 0.21161(8) 0.61730(6)
O31 O 0.57213(9) 0.40548(7) 0.18171(6)
O32 O 0.38335(10) 0.44979(7) 0.12771(7)
O33 O 0.60918(10) 0.76078(7) 0.36212(6)
O34 O 0.41010(10) 0.73653(7) 0.28135(7)
C27 C 0.95154(13) 0.43085(10) 0.28628(8)
C33 C 0.79820(14) 0.31417(10) 0.39997(8)
C34 C 0.71240(14) 0.29861(11) 0.42563(8)
C35 C 0.58947(15) 0.31143(13) 0.38699(10)
H37 H 0.545438 0.331700 0.338096
C36 C 0.53473(16) 0.29096(13) 0.42829(10)
H38 H 0.449936 0.294842 0.409307
C37 C 0.61826(14) 0.26488(11) 0.49883(9)
C38 C 0.59370(14) 0.23790(10) 0.55676(9)
C39 C 0.49430(14) 0.45460(9) 0.17820(8)
C40 C 0.53772(14) 0.51977(10) 0.23118(9)
C41 C 0.65317(16) 0.53538(11) 0.28876(11)
H39 H 0.720553 0.502169 0.303273
C42 C 0.66173(17) 0.60671(11) 0.32467(11)
H40 H 0.735118 0.626390 0.365482
C43 C 0.55075(15) 0.64380(10) 0.29314(9)
C44 C 0.51954(14) 0.71918(10) 0.31275(9)
Co12 Co 0.94326(2) 0.81748(2) 0.06743(2)
O35 O 0.94385(10) 0.78849(7) 0.62465(6)
O38 O 0.86326(11) 0.23507(7) 0.28311(7)
O39 O 0.48194(10) 0.25703(8) 0.03879(6)
O41 O 0.67959(10) 0.28839(8) 0.11730(6)
O44 O 0.39082(10) 0.26078(7) 0.13788(6)
O46 O 0.58990(10) 0.23653(7) 0.21865(7)
O25 O 0.24798(10) 0.36802(7) 0.98451(6)
O2_2 O 0.14711(10) 0.23692(7) 0.04396(6)
O16_2 O 0.06585(10) 0.06724(7) 0.00240(7)
C19_2 C 0.01123(15) 0.06139(11) 0.04689(9)
H14_2 H 0.071448 0.040509 0.096448
S4_2 S 0.07752(3) 0.06126(2) 0.30322(2)
S6_2 S 0.56398(4) 0.09111(3) 0.27957(2)
C40_2 C 0.46228(14) 0.01977(10) 0.26882(9)
C41_2 C 0.34683(16) 0.03538(11) 0.21124(11)
H39_2 H 0.279447 0.002169 0.196727
C42_2 C 0.33827(17) 0.10671(11) 0.17533(11)
H40_2 H 0.264882 0.126390 0.134518
C43_2 C 0.44925(15) 0.14380(10) 0.20686(9)
C44_2 C 0.48046(14) 0.21918(10) 0.18725(9)
O3_2 O 0.01972(10) 0.10351(7) 0.84799(6)
O4_2 O 0.25075(11) 0.16815(8) 0.95987(8)
H15_2 H 0.161468 0.969091 0.039537
O20_2 O 0.15592(10) 0.91249(7) 0.26417(6)
O25_2 O 0.75202(10) 0.86802(7) 0.51549(6)
O27_2 O 0.24266(10) 0.85184(7) 0.16030(6)
O28_2 O 0.09458(10) 0.79014(8) 0.05841(6)
O31_2 O 0.42787(9) 0.90548(7) 0.31829(6)
O32_2 O 0.61665(10) 0.94979(7) 0.37229(7)
C27_2 C 0.04846(13) 0.93085(10) 0.21372(8)
C33_2 C 0.20180(14) 0.81417(10) 0.10003(8)
C34_2 C 0.28760(14) 0.79861(11) 0.07437(8)
C35_2 C 0.41053(15) 0.81143(13) 0.11301(10)
H37_2 H 0.454562 0.831700 0.161904
C36_2 C 0.46527(16) 0.79096(13) 0.07171(10)
H38_2 H 0.550064 0.794842 0.090693
C37_2 C 0.38174(14) 0.76488(11) 0.00117(9)
C39_2 C 0.50570(14) 0.95460(9) 0.32180(8)
O47 O 0.49226(11) 0.92137(8) 0.47856(7)
C2_2 C 0.00598(14) 0.99893(10) 0.77318(8)
C3_2 C 0.12393(15) 0.97343(11) 0.81780(10)
H7_2 H 0.183354 0.999139 0.861626
C4_2 C 0.14686(15) 0.90448(11) 0.79107(10)
H8_2 H 0.223525 0.879187 0.815269
C5_2 C 0.04648(14) 0.87785(10) 0.72631(8)
C6_2 C 0.04215(13) 0.80517(10) 0.68661(8)
C20_2 C 0.09965(16) 0.99146(11) 0.99109(10)
H16_2 H 0.136126 0.995584 0.960112
H21_2 H 0.013640 0.886760 0.946312
S5_2 S 0.23627(3) 0.76196(3) 0.98592(2)
C38_2 C 0.40630(14) 0.73790(10) 0.94324(9)
S2_2 S 0.76373(3) 0.23804(3) 0.01408(2)
C12_2 C 0.59370(14) 0.26210(10) 0.05676(9)
H13_2 H 0.986360 0.113240 0.053688
C24_2 C 0.90035(16) 0.00854(11) 0.00891(10)
H24_2 H 0.863874 0.004416 0.039888
C28_2 C 0.99402(14) 0.00107(10) 0.22682(8)
C29_2 C 0.87607(15) 0.02657(11) 0.18220(10)
H35_2 H 0.816646 0.000861 0.138374
C30_2 C 0.85314(15) 0.09552(11) 0.20893(10)
H36_2 H 0.776475 0.120813 0.184731
C31_2 C 0.95352(14) 0.12215(10) 0.27369(8)
C32_2 C 0.95785(13) 0.19483(10) 0.31339(8)
O1_2 O 0.84408(10) 0.08751(7) 0.73583(6)
O6_2 O 0.24798(10) 0.13198(7) 0.48451(6)
O8_2 O 0.75734(10) 0.14816(7) 0.83970(6)
O9_2 O 0.90542(10) 0.20986(8) 0.94159(6)
O12_2 O 0.57213(9) 0.09452(7) 0.68171(6)
O13_2 O 0.38335(10) 0.05021(7) 0.62771(7)
O17_2 O 0.50774(11) 0.07863(8) 0.52144(7)
C1_2 C 0.95154(13) 0.06915(10) 0.78628(8)
C7_2 C 0.79820(14) 0.18583(10) 0.89997(8)
C8_2 C 0.71240(14) 0.20139(11) 0.92563(8)
C9_2 C 0.58947(15) 0.18857(13) 0.88699(10)
H9_2 H 0.545438 0.168300 0.838096
C10_2 C 0.53473(16) 0.20904(13) 0.92829(10)
H10_2 H 0.449936 0.205158 0.909307
C11_2 C 0.61826(14) 0.23512(11) 0.99883(9)
C13_2 C 0.49430(14) 0.04540(9) 0.67820(8)
C21_2 C 0.43000(17) 0.05426(12) 0.44438(9)
H17_2 H 0.475833 0.057652 0.418843
H18_2 H 0.358556 0.088901 0.418558
C22_2 C 0.61193(16) 0.02701(12) 0.55879(10)
H19_2 H 0.665093 0.043037 0.611191
H20_2 H 0.659911 0.030050 0.534599
H23_2 H 0.838532 0.030909 0.960463
O22_2 O 0.98028(10) 0.89649(7) 0.15201(6)
O23_2 O 0.74925(11) 0.83185(8) 0.04013(8)
S1_2 S 0.92248(3) 0.93874(2) 0.69678(2)
S3_2 S 0.43602(4) 0.90889(3) 0.72043(2)
C14_2 C 0.53772(14) 0.98023(10) 0.73118(9)
C15_2 C 0.65317(16) 0.96462(11) 0.78876(11)
H11_2 H 0.720553 0.997831 0.803273
C16_2 C 0.66173(17) 0.89329(11) 0.82467(11)
H12_2 H 0.735118 0.873610 0.865482
C17_2 C 0.55075(15) 0.85620(10) 0.79314(9)
C18_2 C 0.51954(14) 0.78082(10) 0.81275(9)
O18_2 O 0.93415(10) 0.93276(7) 0.99760(7)
C23_2 C 0.98877(15) 0.93861(11) 0.95311(9)
H22_2 H 0.928552 0.959491 0.903552
C25_2 C 0.57000(17) 0.94574(12) 0.55562(9)
H25_2 H 0.524167 0.942348 0.581157
H26_2 H 0.641444 0.911099 0.581442
C26_2 C 0.38807(16) 0.97299(12) 0.44121(10)
H27_2 H 0.334907 0.956963 0.388809
H28_2 H 0.340089 0.969950 0.465401
O21_2 O 0.85289(10) 0.76308(7) 0.95604(6)
loop_
_geom_bond_atom_site_label_1
_geom_bond_atom_site_label_2
_geom_bond_site_symmetry_1
_geom_bond_site_symmetry_2
H17 C21 1_555 1_555
H18 C21 1_555 1_555
C26 C21 1_555 1_555
H27 C26 1_555 1_555
H28 C26 1_555 1_555
Co15 O19 1_555 1_555
O19 C26 1_555 1_555
Co1 O1 1_555 1_555
S2 C8 1_555 1_555
S3 C14 1_555 1_555
O1 C1 1_555 1_555
O8 Co1 1_555 1_555
O10 C12 1_555 1_555
O11 C12 1_555 1_555
O12 Co1 1_555 1_555
O13 Co3 1_555 1_555
O14 C18 1_555 1_555
O15 C18 1_555 1_555
O17 Co3 1_555 1_555
C7 O8 1_555 1_555
C8 C7 1_555 1_555
C9 C8 1_555 1_555
H9 C9 1_555 1_555
C10 C9 1_555 1_555
H10 C10 1_555 1_555
C11 S2 1_555 1_555
C12 C11 1_555 1_555
C13 O12 1_555 1_555
C14 C13 1_555 1_555
C15 C14 1_555 1_555
H11 C15 1_555 1_555
C16 C15 1_555 1_555
H12 C16 1_555 1_555
C17 S3 1_555 1_555
C18 C17 1_555 1_555
C22 O17 1_555 1_555
H19 C22 1_555 1_555
H20 C22 1_555 1_555
O18 C23 1_555 1_555
H22 C23 1_555 1_555
H23 C24 1_555 1_555
H24 C24 1_555 1_555
C25 C22 1_555 1_555
H25 C25 1_555 1_555
H26 C25 1_555 1_555
Co5 O18 1_555 1_555
O21 Co5 1_555 1_555
O22 Co5 1_555 1_555
O23 Co5 1_555 1_555
O26 C32 1_555 1_555
C29 C28 1_555 1_555
H35 C29 1_555 1_555
C30 C29 1_555 1_555
H36 C30 1_555 1_555
C32 C31 1_555 1_555
Co8 O15 1_555 1_555
Co10 O11 1_555 1_555
Co11 O5 1_555 1_555
Co14 O14 1_555 1_555
Co17 O10 1_555 1_555
O36 Co5 1_555 1_555
O37 Co1 1_555 1_555
O40 Co3 1_555 1_555
O42 Co1 1_555 1_555
O43 Co3 1_555 1_555
O45 Co1 1_555 1_555
Co3 O12 1_555 1_555
O9 C7 1_555 1_555
O13 C13 1_555 1_555
C10 C11 1_555 1_555
C16 C17 1_555 1_555
O18 C24 1_555 1_555
O26 Co10 1_555 1_555
C30 C31 1_555 1_555
Co2 O2 1_555 1_555
O3 Co2 1_555 1_555
O4 Co2 1_555 1_555
O7 C6 1_555 1_555
O16 Co2 1_555 1_555
C3 C2 1_555 1_555
H7 C3 1_555 1_555
C4 C3 1_555 1_555
H8 C4 1_555 1_555
C6 C5 1_555 1_555
C19 O16 1_555 1_555
H14 C19 1_555 1_555
C20 O16 1_555 1_555
H15 C20 1_555 1_555
H16 C20 1_555 1_555
Co4 O20 1_555 1_555
S5 C34 1_555 1_555
S6 C40 1_555 1_555
O20 C27 1_555 1_555
O27 Co4 1_555 1_555
O29 C38 1_555 1_555
O30 C38 1_555 1_555
O31 Co4 1_555 1_555
O32 Co15 1_555 1_555
O33 C44 1_555 1_555
O34 C44 1_555 1_555
C33 O27 1_555 1_555
C34 C33 1_555 1_555
C35 C34 1_555 1_555
H37 C35 1_555 1_555
C36 C35 1_555 1_555
H38 C36 1_555 1_555
C37 S5 1_555 1_555
C38 C37 1_555 1_555
C39 O31 1_555 1_555
C40 C39 1_555 1_555
C41 C40 1_555 1_555
H39 C41 1_555 1_555
C42 C41 1_555 1_555
H40 C42 1_555 1_555
C43 S6 1_555 1_555
C44 C43 1_555 1_555
Co8 O7 1_555 1_555
Co10 O34 1_555 1_555
Co12 O24 1_555 1_555
Co14 O29 1_555 1_555
Co17 O33 1_555 1_555
O35 Co2 1_555 1_555
O38 Co4 1_555 1_555
O39 Co15 1_555 1_555
O41 Co4 1_555 1_555
O44 Co15 1_555 1_555
O46 Co4 1_555 1_555
C4 C5 1_555 1_555
Co15 O31 1_555 1_555
O28 C33 1_555 1_555
O30 Co8 1_555 1_555
O32 C39 1_555 1_555
C36 C37 1_555 1_555
C42 C43 1_555 1_555
C19_2 O16_2 1_555 1_555
H14_2 C19_2 1_555 1_555
S6_2 C40_2 1_555 1_555
O44 C44_2 1_555 1_555
O46 C44_2 1_555 1_555
C41_2 C40_2 1_555 1_555
H39_2 C41_2 1_555 1_555
C42_2 C41_2 1_555 1_555
H40_2 C42_2 1_555 1_555
C43_2 S6_2 1_555 1_555
C44_2 C43_2 1_555 1_555
C42_2 C43_2 1_555 1_555
O3_2 Co11 1_555 1_555
O4_2 Co11 1_555 1_555
Co10 O20_2 1_555 1_555
Co17 O25_2 1_555 1_555
O20_2 C27_2 1_555 1_555
O27_2 Co10 1_555 1_555
O31_2 Co10 1_555 1_555
O32_2 Co17 1_555 1_555
C33_2 O27_2 1_555 1_555
C34_2 C33_2 1_555 1_555
C35_2 C34_2 1_555 1_555
H37_2 C35_2 1_555 1_555
C36_2 C35_2 1_555 1_555
H38_2 C36_2 1_555 1_555
C39_2 O31_2 1_555 1_555
O47 Co17 1_555 1_555
Co17 O31_2 1_555 1_555
O28_2 C33_2 1_555 1_555
O32_2 C39_2 1_555 1_555
C36_2 C37_2 1_555 1_555
O37 C6_2 1_555 1_555
C3_2 C2_2 1_555 1_555
H7_2 C3_2 1_555 1_555
C4_2 C3_2 1_555 1_555
H8_2 C4_2 1_555 1_555
C6_2 C5_2 1_555 1_555
H16_2 C20_2 1_555 1_555
O40 C38_2 1_555 1_555
O42 C38_2 1_555 1_555
C4_2 C5_2 1_555 1_555
O39 C12_2 1_555 1_555
O41 C12_2 1_555 1_555
H24_2 C24_2 1_555 1_555
O38 C32_2 1_555 1_555
C29_2 C28_2 1_555 1_555
H35_2 C29_2 1_555 1_555
C30_2 C29_2 1_555 1_555
H36_2 C30_2 1_555 1_555
C32_2 C31_2 1_555 1_555
C30_2 C31_2 1_555 1_555
Co8 O1_2 1_555 1_555
Co14 O6_2 1_555 1_555
O1_2 C1_2 1_555 1_555
O8_2 Co8 1_555 1_555
O12_2 Co8 1_555 1_555
O13_2 Co14 1_555 1_555
O17_2 Co14 1_555 1_555
C7_2 O8_2 1_555 1_555
C8_2 C7_2 1_555 1_555
C9_2 C8_2 1_555 1_555
H9_2 C9_2 1_555 1_555
C10_2 C9_2 1_555 1_555
H10_2 C10_2 1_555 1_555
C13_2 O12_2 1_555 1_555
C21_2 O17_2 1_555 1_555
H17_2 C21_2 1_555 1_555
H18_2 C21_2 1_555 1_555
C22_2 O17_2 1_555 1_555
H19_2 C22_2 1_555 1_555
H20_2 C22_2 1_555 1_555
Co14 O12_2 1_555 1_555
O9_2 C7_2 1_555 1_555
O13_2 C13_2 1_555 1_555
C10_2 C11_2 1_555 1_555
O22_2 Co12 1_555 1_555
O23_2 Co12 1_555 1_555
S3_2 C14_2 1_555 1_555
O43 C18_2 1_555 1_555
O45 C18_2 1_555 1_555
C15_2 C14_2 1_555 1_555
H11_2 C15_2 1_555 1_555
C16_2 C15_2 1_555 1_555
H12_2 C16_2 1_555 1_555
C17_2 S3_2 1_555 1_555
C18_2 C17_2 1_555 1_555
O18_2 C23_2 1_555 1_555
H22_2 C23_2 1_555 1_555
O47 C25_2 1_555 1_555
H25_2 C25_2 1_555 1_555
H26_2 C25_2 1_555 1_555
H27_2 C26_2 1_555 1_555
H28_2 C26_2 1_555 1_555
C16_2 C17_2 1_555 1_555
O47 C26_2 1_555 1_555

#END
