
###############################################################################
#
# This file contains modified crystal structure data generated from the
# MOF subset of the Cambridge Structural Database (CSD) v542 
# hosted by the Cambridge Crystallographic Data Centre (CCDC).
#
# This work is licensed under the Creative Commons
# Attribution-NonCommercial-ShareAlike 4.0 International License.
# To view a copy of this license, visit
# http://creativecommons.org/licenses/by-nc-sa/4.0/
# or send a letter to
# Creative Commons, PO Box 1866, Mountain View, CA 94042, USA.
#
# CIF created using the CSD Python API on 22 February 2021
# The structure has been converted into the P1 space group
# The structure has a 3D framework
# The original CSD entry JIHVEE is in the orthorhombic crystal system
# The framework has been calculated to contain at least 10.0% void space
# The void calculation uses a probe of radius 1.32A, grid spacing 0.4
#
###############################################################################

data_JIHVEE
_chemical_formula_moiety         '(C96 H60 Ba4 N12 O24)n'
_symmetry_cell_setting           triclinic
_symmetry_space_group_name_H-M   'P 1'
_symmetry_Int_Tables_number      1
_space_group_name_Hall           'P 1'
loop_
_symmetry_equiv_pos_site_id
_symmetry_equiv_pos_as_xyz
1 x,y,z
_cell_length_a                   7.3344(2)
_cell_length_b                   19.3892(7)
_cell_length_c                   26.2341(10)
_cell_angle_alpha                90
_cell_angle_beta                 90
_cell_angle_gamma                90
_cell_volume                     3730.7
loop_
_atom_site_label
_atom_site_type_symbol
_atom_site_fract_x
_atom_site_fract_y
_atom_site_fract_z
Ba6 Ba 0.10079(6) 0.30640(2) 0.12095(3)
O2 O 0.5584(9) 0.0512(3) 0.1328(4)
C2 C 0.4859(11) 0.0001(4) 0.1159(4)
O6 O 0.4064(10) 0.0013(4) 0.0709(3)
Ba2 Ba 0.60079(6) 0.19360(2) 0.12095(3)
O1 O 0.4747(7) 0.3264(3) 0.1284(4)
C1 C 0.4109(11) 0.8744(4) 0.1208(7)
H1 H 0.377229 0.874454 0.086610
C3 C 0.3964(13) 0.6880(4) 0.3109(4)
N1 N 0.3963(10) 0.7477(4) 0.2824(3)
C4 C 0.5970(10) 0.4244(4) 0.1720(3)
O3 O 0.1917(9) 0.7324(4) 0.5502(2)
O4 O 0.7513(7) 0.3170(3) 0.1617(3)
C5 C 0.4469(12) 0.7463(5) 0.2310(4)
C6 C 0.3412(12) 0.6878(4) 0.3651(4)
O5 O 0.0705(8) 0.6300(3) 0.5372(3)
N2 N 0.4952(11) 0.6850(4) 0.2076(3)
C7 C 0.4510(12) 0.8107(4) 0.2005(4)
C8 C 0.4008(15) 0.8141(5) 0.1491(4)
H3 H 0.358914 0.774188 0.133264
C9 C 0.3110(13) 0.7389(5) 0.4486(3)
H4 H 0.327596 0.777534 0.469080
C10 C 0.2457(12) 0.6291(5) 0.3855(4)
H5 H 0.222031 0.591629 0.364334
C11 C 0.1899(14) 0.6268(5) 0.4343(4)
H6 H 0.124481 0.589111 0.446303
C12 C 0.2328(11) 0.6841(4) 0.4679(4)
C13 C 0.3712(11) 0.7410(5) 0.3971(4)
H7 H 0.432536 0.779764 0.385317
C14 C 0.6457(13) 0.5074(5) 0.2382(4)
H8 H 0.698303 0.518871 0.269332
C15 C 0.5264(12) 0.9324(5) 0.1937(4)
H9 H 0.568145 0.973059 0.208518
C16 C 0.1637(12) 0.6819(5) 0.5227(4)
C17 C 0.6720(12) 0.4422(5) 0.2181(4)
H10 H 0.741242 0.410130 0.235950
C18 C 0.4974(12) 0.6239(5) 0.2367(4)
N3 N 0.4543(10) 0.6262(4) 0.2885(3)
C19 C 0.4700(12) 0.9331(5) 0.1432(4)
C20 C 0.4741(13) 0.5381(5) 0.1653(4)
H11 H 0.412798 0.571487 0.146481
C21 C 0.5218(13) 0.8728(5) 0.2225(4)
H12 H 0.564363 0.872948 0.255931
C22 C 0.5450(12) 0.5544(5) 0.2132(4)
O7 O 0.6450(15) 0.1705(7) 0.2246(4)
C23 C 0.4948(13) 0.4734(5) 0.1462(3)
H13 H 0.439621 0.461825 0.115477
C24 C 0.6044(13) 0.3503(5) 0.1527(4)
Ba3 Ba 0.39921(6) 0.80640(2) 0.62095(3)
O8 O 0.9747(7) 0.1736(3) 0.1284(4)
O10 O 0.8083(9) 0.2676(4) 0.0502(2)
O11 O 0.3083(9) 0.2324(4) 0.0502(2)
O12 O 0.2513(7) 0.1830(3) 0.1617(3)
O13 O 0.4295(8) 0.1300(3) 0.0372(3)
Ba4 Ba 0.89921(6) 0.69360(2) 0.62095(3)
O5_2 O 0.9295(8) 0.3700(3) 0.0372(3)
C16_2 C 0.8363(12) 0.3181(5) 0.0227(4)
O1_2 O 0.5253(7) 0.6736(3) 0.6284(4)
C1_2 C 0.5891(11) 0.1256(4) 0.6208(7)
H1_2 H 0.622771 0.125546 0.586610
C3_2 C 0.6036(13) 0.3120(4) 0.8109(4)
N1_2 N 0.6037(10) 0.2523(4) 0.7824(3)
C4_2 C 0.4030(10) 0.5756(4) 0.6720(3)
O4_2 O 0.2487(7) 0.6830(3) 0.6617(3)
C5_2 C 0.5531(12) 0.2537(5) 0.7310(4)
C6_2 C 0.6588(12) 0.3122(4) 0.8651(4)
N2_2 N 0.5048(11) 0.3150(4) 0.7076(3)
C7_2 C 0.5490(12) 0.1893(4) 0.7005(4)
C8_2 C 0.5992(15) 0.1859(5) 0.6491(4)
H3_2 H 0.641086 0.225812 0.633264
C9_2 C 0.6890(13) 0.2611(5) 0.9486(3)
H4_2 H 0.672404 0.222466 0.969080
C10_2 C 0.7543(12) 0.3709(5) 0.8855(4)
H5_2 H 0.777969 0.408371 0.864334
C11_2 C 0.8101(14) 0.3732(5) 0.9343(4)
H6_2 H 0.875519 0.410889 0.946303
C12_2 C 0.7672(11) 0.3159(4) 0.9679(4)
C13_2 C 0.6288(11) 0.2590(5) 0.8971(4)
H7_2 H 0.567464 0.220236 0.885317
C14_2 C 0.3543(13) 0.4926(5) 0.7382(4)
H8_2 H 0.301697 0.481129 0.769332
C15_2 C 0.4736(12) 0.0676(5) 0.6937(4)
H9_2 H 0.431855 0.026941 0.708518
C17_2 C 0.3280(12) 0.5578(5) 0.7181(4)
H10_2 H 0.258758 0.589870 0.735950
C18_2 C 0.5026(12) 0.3761(5) 0.7367(4)
N3_2 N 0.5457(10) 0.3738(4) 0.7885(3)
C19_2 C 0.5300(12) 0.0669(5) 0.6432(4)
C20_2 C 0.5259(13) 0.4619(5) 0.6653(4)
H11_2 H 0.587202 0.428513 0.646481
C21_2 C 0.4782(13) 0.1272(5) 0.7225(4)
H12_2 H 0.435637 0.127052 0.755931
C22_2 C 0.4550(12) 0.4456(5) 0.7132(4)
O7_2 O 0.3550(15) 0.8295(7) 0.7246(4)
C23_2 C 0.5052(13) 0.5266(5) 0.6462(3)
H13_2 H 0.560379 0.538175 0.615477
C24_2 C 0.3956(13) 0.6497(5) 0.6527(4)
O8_2 O 0.0253(7) 0.8264(3) 0.6284(4)
O9 O 0.4416(9) 0.9488(3) 0.6328(4)
O11_2 O 0.6917(9) 0.7676(4) 0.5502(2)
O12_2 O 0.7487(7) 0.8170(3) 0.6617(3)
O13_2 O 0.5705(8) 0.8700(3) 0.5372(3)
C2_2 C 0.5141(11) 0.9999(4) 0.6159(4)
O6_2 O 0.5936(10) 0.9987(4) 0.5709(3)
C16_3 C 0.3363(12) 0.1819(5) 0.0227(4)
C23_3 C 0.0052(13) 0.9734(5) 0.6462(3)
H13_3 H 0.060379 0.961825 0.615477
O2_2 O 0.9416(9) 0.5512(3) 0.6328(4)
C14_3 C 0.8543(13) 0.0074(5) 0.7382(4)
H8_3 H 0.801697 0.018871 0.769332
C15_3 C 0.9736(12) 0.4324(5) 0.6937(4)
H9_3 H 0.931855 0.473059 0.708518
C21_3 C 0.9782(13) 0.3728(5) 0.7225(4)
H12_3 H 0.935637 0.372948 0.755931
C22_3 C 0.9550(12) 0.0544(5) 0.7132(4)
C4_3 C 0.9030(10) 0.9244(4) 0.6720(3)
C17_3 C 0.8280(12) 0.9422(5) 0.7181(4)
H10_3 H 0.758758 0.910130 0.735950
O7_3 O 0.8550(15) 0.6705(7) 0.7246(4)
C24_3 C 0.8956(13) 0.8503(5) 0.6527(4)
C4_4 C 0.0970(10) 0.0756(4) 0.1720(3)
C17_4 C 0.1720(12) 0.0578(5) 0.2181(4)
H10_4 H 0.241242 0.089870 0.235950
O7_4 O 0.1450(15) 0.3295(7) 0.2246(4)
C24_4 C 0.1044(13) 0.1497(5) 0.1527(4)
O9_2 O 0.0584(9) 0.4488(3) 0.1328(4)
C14_4 C 0.1457(13) 0.9926(5) 0.2382(4)
H8_4 H 0.198303 0.981129 0.269332
C15_4 C 0.0264(12) 0.5676(5) 0.1937(4)
H9_4 H 0.068145 0.526941 0.208518
C21_4 C 0.0218(13) 0.6272(5) 0.2225(4)
H12_4 H 0.064363 0.627052 0.255931
C22_4 C 0.0450(12) 0.9456(5) 0.2132(4)
C23_4 C 0.9948(13) 0.0266(5) 0.1462(3)
H13_4 H 0.939621 0.038175 0.115477
C1_3 C 0.9109(11) 0.6256(4) 0.1208(7)
H1_3 H 0.877229 0.625546 0.086610
C2_3 C 0.9859(11) 0.4999(4) 0.1159(4)
C3_3 C 0.8964(13) 0.8120(4) 0.3109(4)
N1_3 N 0.8963(10) 0.7523(4) 0.2824(3)
C5_3 C 0.9469(12) 0.7537(5) 0.2310(4)
C6_3 C 0.8412(12) 0.8122(4) 0.3651(4)
O6_3 O 0.9064(10) 0.4987(4) 0.0709(3)
N2_3 N 0.9952(11) 0.8150(4) 0.2076(3)
C7_3 C 0.9510(12) 0.6893(4) 0.2005(4)
C8_3 C 0.9008(15) 0.6859(5) 0.1491(4)
H3_3 H 0.858914 0.725812 0.133264
C9_3 C 0.8110(13) 0.7611(5) 0.4486(3)
H4_3 H 0.827596 0.722466 0.469080
C10_3 C 0.7457(12) 0.8709(5) 0.3855(4)
H5_3 H 0.722031 0.908371 0.364334
C11_3 C 0.6899(14) 0.8732(5) 0.4343(4)
H6_3 H 0.624481 0.910889 0.446303
C12_3 C 0.7328(11) 0.8159(4) 0.4679(4)
C13_3 C 0.8712(11) 0.7590(5) 0.3971(4)
H7_3 H 0.932536 0.720236 0.385317
C16_4 C 0.6637(12) 0.8181(5) 0.5227(4)
C18_3 C 0.9974(12) 0.8761(5) 0.2367(4)
N3_3 N 0.9543(10) 0.8738(4) 0.2885(3)
C19_3 C 0.9700(12) 0.5669(5) 0.1432(4)
C20_3 C 0.9741(13) 0.9619(5) 0.1653(4)
H11_3 H 0.912798 0.928513 0.146481
C1_4 C 0.0891(11) 0.3744(4) 0.6208(7)
H1_4 H 0.122771 0.374454 0.586610
C2_4 C 0.0141(11) 0.5001(4) 0.6159(4)
C3_4 C 0.1036(13) 0.1880(4) 0.8109(4)
N1_4 N 0.1037(10) 0.2477(4) 0.7824(3)
C5_4 C 0.0531(12) 0.2463(5) 0.7310(4)
C6_4 C 0.1588(12) 0.1878(4) 0.8651(4)
O6_4 O 0.0936(10) 0.5013(4) 0.5709(3)
N2_4 N 0.0048(11) 0.1850(4) 0.7076(3)
C7_4 C 0.0490(12) 0.3107(4) 0.7005(4)
C8_4 C 0.0992(15) 0.3141(5) 0.6491(4)
H3_4 H 0.141086 0.274188 0.633264
C9_4 C 0.1890(13) 0.2389(5) 0.9486(3)
H4_4 H 0.172404 0.277534 0.969080
C10_4 C 0.2543(12) 0.1291(5) 0.8855(4)
H5_4 H 0.277969 0.091629 0.864334
C11_4 C 0.3101(14) 0.1268(5) 0.9343(4)
H6_4 H 0.375519 0.089111 0.946303
C12_4 C 0.2672(11) 0.1841(4) 0.9679(4)
C13_4 C 0.1288(11) 0.2410(5) 0.8971(4)
H7_4 H 0.067464 0.279764 0.885317
C18_4 C 0.0026(12) 0.1239(5) 0.7367(4)
N3_4 N 0.0457(10) 0.1262(4) 0.7885(3)
C19_4 C 0.0300(12) 0.4331(5) 0.6432(4)
C20_4 C 0.0259(13) 0.0381(5) 0.6653(4)
H11_4 H 0.087202 0.071487 0.646481
loop_
_geom_bond_atom_site_label_1
_geom_bond_atom_site_label_2
_geom_bond_site_symmetry_1
_geom_bond_site_symmetry_2
O2 C2 1_555 1_555
C2 O6 1_555 1_555
Ba2 O2 1_555 1_555
Ba2 O1 1_555 1_555
O1 C24 1_555 1_555
C1 H1 1_555 1_555
C3 N1 1_555 1_555
N1 C5 1_555 1_555
C4 C17 1_555 1_555
O3 C16 1_555 1_555
O4 Ba2 1_555 1_555
C5 N2 1_555 1_555
C6 C3 1_555 1_555
O5 C16 1_555 1_555
N2 C18 1_555 1_555
C7 C5 1_555 1_555
C8 C1 1_555 1_555
H3 C8 1_555 1_555
C9 H4 1_555 1_555
C10 C6 1_555 1_555
H5 C10 1_555 1_555
C11 C10 1_555 1_555
H6 C11 1_555 1_555
C12 C9 1_555 1_555
C13 C6 1_555 1_555
H7 C13 1_555 1_555
C14 H8 1_555 1_555
C15 H9 1_555 1_555
C16 C12 1_555 1_555
C17 C14 1_555 1_555
H10 C17 1_555 1_555
C18 N3 1_555 1_555
N3 C3 1_555 1_555
C19 C1 1_555 1_555
C20 H11 1_555 1_555
C21 C7 1_555 1_555
H12 C21 1_555 1_555
C22 C14 1_555 1_555
O7 Ba2 1_555 1_555
C23 C4 1_555 1_555
H13 C23 1_555 1_555
C24 C4 1_555 1_555
Ba3 O3 1_555 1_555
Ba6 O1 1_555 1_555
O8 Ba2 1_555 1_555
O10 Ba2 1_555 1_555
O11 Ba2 1_555 1_555
O12 Ba2 1_555 1_555
O13 Ba2 1_555 1_555
O4 C24 1_555 1_555
C7 C8 1_555 1_555
C9 C13 1_555 1_555
C11 C12 1_555 1_555
C15 C19 1_555 1_555
C15 C21 1_555 1_555
C18 C22 1_555 1_555
C20 C22 1_555 1_555
C20 C23 1_555 1_555
Ba6 O11 1_555 1_555
Ba6 O12 1_555 1_555
O10 C16_2 1_555 1_555
O5_2 C16_2 1_555 1_555
Ba3 O1_2 1_555 1_555
O1_2 C24_2 1_555 1_555
C1_2 H1_2 1_555 1_555
C3_2 N1_2 1_555 1_555
N1_2 C5_2 1_555 1_555
C4_2 C17_2 1_555 1_555
O4_2 Ba3 1_555 1_555
C5_2 N2_2 1_555 1_555
C6_2 C3_2 1_555 1_555
N2_2 C18_2 1_555 1_555
C7_2 C5_2 1_555 1_555
C8_2 C1_2 1_555 1_555
H3_2 C8_2 1_555 1_555
C9_2 H4_2 1_555 1_555
C10_2 C6_2 1_555 1_555
H5_2 C10_2 1_555 1_555
C11_2 C10_2 1_555 1_555
H6_2 C11_2 1_555 1_555
C12_2 C9_2 1_555 1_555
C13_2 C6_2 1_555 1_555
H7_2 C13_2 1_555 1_555
C14_2 H8_2 1_555 1_555
C15_2 H9_2 1_555 1_555
C17_2 C14_2 1_555 1_555
H10_2 C17_2 1_555 1_555
C18_2 N3_2 1_555 1_555
N3_2 C3_2 1_555 1_555
C19_2 C1_2 1_555 1_555
C20_2 H11_2 1_555 1_555
C21_2 C7_2 1_555 1_555
H12_2 C21_2 1_555 1_555
C22_2 C14_2 1_555 1_555
O7_2 Ba3 1_555 1_555
C23_2 C4_2 1_555 1_555
H13_2 C23_2 1_555 1_555
C24_2 C4_2 1_555 1_555
Ba4 O1_2 1_555 1_555
O8_2 Ba3 1_555 1_555
O9 Ba3 1_555 1_555
O11_2 Ba3 1_555 1_555
O12_2 Ba3 1_555 1_555
O13_2 Ba3 1_555 1_555
O4_2 C24_2 1_555 1_555
C7_2 C8_2 1_555 1_555
C9_2 C13_2 1_555 1_555
C11_2 C12_2 1_555 1_555
C15_2 C19_2 1_555 1_555
C15_2 C21_2 1_555 1_555
C18_2 C22_2 1_555 1_555
C20_2 C22_2 1_555 1_555
C20_2 C23_2 1_555 1_555
Ba4 O11_2 1_555 1_555
Ba4 O12_2 1_555 1_555
O9 C2_2 1_555 1_555
C2_2 O6_2 1_555 1_555
O11 C16_3 1_555 1_555
O13 C16_3 1_555 1_555
H13_3 C23_3 1_555 1_555
C14_3 H8_3 1_555 1_555
C15_3 H9_3 1_555 1_555
H12_3 C21_3 1_555 1_555
C22_3 C14_3 1_555 1_555
Ba4 O2_2 1_555 1_555
C15_3 C21_3 1_555 1_555
C4_3 C17_3 1_555 1_555
H10_3 C17_3 1_555 1_555
O7_3 Ba4 1_555 1_555
C24_3 C4_3 1_555 1_555
O12_2 C24_3 1_555 1_555
C4_4 C17_4 1_555 1_555
H10_4 C17_4 1_555 1_555
O7_4 Ba6 1_555 1_555
C24_4 C4_4 1_555 1_555
O9_2 Ba6 1_555 1_555
O12 C24_4 1_555 1_555
C14_4 H8_4 1_555 1_555
C15_4 H9_4 1_555 1_555
H12_4 C21_4 1_555 1_555
C22_4 C14_4 1_555 1_555
C15_4 C21_4 1_555 1_555
H13_4 C23_4 1_555 1_555
C1_3 H1_3 1_555 1_555
C2_3 O6_3 1_555 1_555
C3_3 N1_3 1_555 1_555
N1_3 C5_3 1_555 1_555
O11_2 C16_4 1_555 1_555
C5_3 N2_3 1_555 1_555
C6_3 C3_3 1_555 1_555
O13_2 C16_4 1_555 1_555
N2_3 C18_3 1_555 1_555
C7_3 C5_3 1_555 1_555
C8_3 C1_3 1_555 1_555
H3_3 C8_3 1_555 1_555
C9_3 H4_3 1_555 1_555
C10_3 C6_3 1_555 1_555
H5_3 C10_3 1_555 1_555
C11_3 C10_3 1_555 1_555
H6_3 C11_3 1_555 1_555
C12_3 C9_3 1_555 1_555
C13_3 C6_3 1_555 1_555
H7_3 C13_3 1_555 1_555
C16_4 C12_3 1_555 1_555
C18_3 N3_3 1_555 1_555
N3_3 C3_3 1_555 1_555
C19_3 C1_3 1_555 1_555
C20_3 H11_3 1_555 1_555
C2_3 C19_3 1_555 1_555
C7_3 C8_3 1_555 1_555
C9_3 C13_3 1_555 1_555
C11_3 C12_3 1_555 1_555
C1_4 H1_4 1_555 1_555
C2_4 O6_4 1_555 1_555
C3_4 N1_4 1_555 1_555
N1_4 C5_4 1_555 1_555
C5_4 N2_4 1_555 1_555
C6_4 C3_4 1_555 1_555
N2_4 C18_4 1_555 1_555
C7_4 C5_4 1_555 1_555
C8_4 C1_4 1_555 1_555
H3_4 C8_4 1_555 1_555
C9_4 H4_4 1_555 1_555
C10_4 C6_4 1_555 1_555
H5_4 C10_4 1_555 1_555
C11_4 C10_4 1_555 1_555
H6_4 C11_4 1_555 1_555
C12_4 C9_4 1_555 1_555
C13_4 C6_4 1_555 1_555
H7_4 C13_4 1_555 1_555
C18_4 N3_4 1_555 1_555
N3_4 C3_4 1_555 1_555
C19_4 C1_4 1_555 1_555
C20_4 H11_4 1_555 1_555
C2_4 C19_4 1_555 1_555
C7_4 C8_4 1_555 1_555
C9_4 C13_4 1_555 1_555
C11_4 C12_4 1_555 1_555

#END
