
###############################################################################
#
# This file contains modified crystal structure data generated from the
# MOF subset of the Cambridge Structural Database (CSD) v542 
# hosted by the Cambridge Crystallographic Data Centre (CCDC).
#
# This work is licensed under the Creative Commons
# Attribution-NonCommercial-ShareAlike 4.0 International License.
# To view a copy of this license, visit
# http://creativecommons.org/licenses/by-nc-sa/4.0/
# or send a letter to
# Creative Commons, PO Box 1866, Mountain View, CA 94042, USA.
#
# CIF created using the CSD Python API on 22 February 2021
# The structure has been converted into the P1 space group
# The structure has a 3D framework
# The original CSD entry JOPKAD is in the orthorhombic crystal system
# The framework has been calculated to contain at least 10.0% void space
# The void calculation uses a probe of radius 1.32A, grid spacing 0.4
#
###############################################################################

data_JOPKAD
_chemical_formula_moiety         '(C64 H48 N8 O40 Zn8)n'
_symmetry_cell_setting           triclinic
_symmetry_space_group_name_H-M   'P 1'
_symmetry_Int_Tables_number      1
_space_group_name_Hall           'P 1'
loop_
_symmetry_equiv_pos_site_id
_symmetry_equiv_pos_as_xyz
1 x,y,z
_cell_length_a                   22.8544(6)
_cell_length_b                   14.8710(4)
_cell_length_c                   12.5566(3)
_cell_angle_alpha                90
_cell_angle_beta                 90
_cell_angle_gamma                90
_cell_volume                     4267.58
loop_
_atom_site_label
_atom_site_type_symbol
_atom_site_fract_x
_atom_site_fract_y
_atom_site_fract_z
Zn6 Zn 0.00222(3) 0.25936(5) 0.14839(10)
O1 O 0.5488(2) 0.3078(3) 0.0396(5)
O2 O 0.9621(3) 0.3479(4) 0.0556(5)
Zn3 Zn 0.38526(4) 0.36091(5) 0.03990(7)
Zn4 Zn 0.88526(4) 0.13909(5) 0.03990(7)
Zn5 Zn 0.50222(3) 0.24064(5) 0.14839(10)
Zn1 Zn 0.61474(4) 0.63909(5) 0.53990(7)
Zn2 Zn 0.49778(3) 0.75936(5) 0.64839(10)
O3 O 0.4971(3) 0.6508(4) 0.7608(6)
O4 O 0.8870(2) 0.2682(4) 0.9878(5)
O6 O 0.5815(3) 0.6828(4) 0.6876(4)
N1 N 0.7552(3) 0.5215(5) 0.8514(6)
O7 O 0.4719(2) 0.3923(4) 0.9926(5)
C1 C 0.9569(4) 0.6225(5) 0.7913(7)
C2 C 0.6613(3) 0.4826(5) 0.8806(6)
O8 O 0.9365(3) 0.6685(4) 0.7160(5)
N2 N 0.7228(3) 0.4668(5) 0.8949(6)
C3 C 0.8558(3) 0.5666(5) 0.8276(6)
H1 H 0.842080 0.615298 0.788439
C4 C 0.5778(4) 0.5621(5) 0.8130(6)
C5 C 0.9354(4) 0.4840(5) 0.9024(7)
H2 H 0.975182 0.478887 0.916906
C6 C 0.5415(3) 0.5010(5) 0.8669(6)
H3 H 0.501118 0.507473 0.862583
C7 C 0.6248(4) 0.4219(6) 0.9317(6)
H4 H 0.640912 0.374527 0.970190
C8 C 0.8964(3) 0.4199(5) 0.9402(6)
C9 C 0.5508(4) 0.6364(5) 0.7495(6)
C10 C 0.5647(3) 0.4314(5) 0.9260(6)
C11 C 0.6380(3) 0.5514(6) 0.8199(7)
H5 H 0.662694 0.590522 0.783615
C12 C 0.8159(3) 0.5054(5) 0.8702(7)
C13 C 0.9172(3) 0.3383(5) 0.9997(6)
C14 C 0.5247(4) 0.3711(5) 0.9898(7)
C15 C 0.8363(3) 0.4311(5) 0.9240(6)
H6 H 0.810169 0.388301 0.949555
C16 C 0.9144(3) 0.5561(5) 0.8424(7)
O9 O 0.6185(6) 0.5056(6) 0.5879(10)
O10 O 0.7007(5) 0.6534(10) 0.5784(14)
O11 O 0.6364(7) 0.5913(10) 0.3862(10)
Zn7 Zn 0.99778(3) 0.74064(5) 0.64839(10)
O12 O 0.4512(2) 0.6922(3) 0.5396(5)
O13 O 0.5379(3) 0.8479(4) 0.5556(5)
O14 O 0.6130(2) 0.7682(4) 0.4878(5)
O15 O 0.5281(2) 0.6077(4) 0.4926(5)
O16 O 0.4365(3) 0.8315(4) 0.7160(5)
O2_2 O 0.0379(3) 0.6521(4) 0.5556(5)
O3_2 O 0.5029(3) 0.3492(4) 0.2608(6)
O4_2 O 0.1130(2) 0.7318(4) 0.4878(5)
O6_2 O 0.4185(3) 0.3172(4) 0.1876(4)
N1_2 N 0.2448(3) 0.4785(5) 0.3514(6)
C1_2 C 0.0431(4) 0.3775(5) 0.2913(7)
C2_2 C 0.3387(3) 0.5174(5) 0.3806(6)
O8_2 O 0.0635(3) 0.3315(4) 0.2160(5)
N2_2 N 0.2772(3) 0.5332(5) 0.3949(6)
C3_2 C 0.1442(3) 0.4334(5) 0.3276(6)
H1_2 H 0.157920 0.384702 0.288439
C4_2 C 0.4222(4) 0.4379(5) 0.3130(6)
C5_2 C 0.0646(4) 0.5160(5) 0.4024(7)
H2_2 H 0.024818 0.521113 0.416906
C6_2 C 0.4585(3) 0.4990(5) 0.3669(6)
H3_2 H 0.498882 0.492527 0.362583
C7_2 C 0.3752(4) 0.5781(6) 0.4317(6)
H4_2 H 0.359088 0.625473 0.470190
C8_2 C 0.1036(3) 0.5801(5) 0.4402(6)
C9_2 C 0.4492(4) 0.3636(5) 0.2495(6)
C10_2 C 0.4353(3) 0.5686(5) 0.4260(6)
C11_2 C 0.3620(3) 0.4486(6) 0.3199(7)
H5_2 H 0.337306 0.409478 0.283615
C12_2 C 0.1841(3) 0.4946(5) 0.3702(7)
C13_2 C 0.0828(3) 0.6617(5) 0.4997(6)
C14_2 C 0.4753(4) 0.6289(5) 0.4898(7)
C15_2 C 0.1637(3) 0.5689(5) 0.4240(6)
H6_2 H 0.189831 0.611699 0.449555
C16_2 C 0.0856(3) 0.4439(5) 0.3424(7)
O9_2 O 0.3815(6) 0.4944(6) 0.0879(10)
O10_2 O 0.2993(5) 0.3466(10) 0.0784(14)
Zn4_2 Zn 0.11474(4) 0.86091(5) 0.53990(7)
O13_2 O 0.4621(3) 0.1521(4) 0.0556(5)
O16_2 O 0.5635(3) 0.1685(4) 0.2160(5)
O11_2 O 0.3636(7) 0.4087(10) 0.8862(10)
O14_2 O 0.3870(2) 0.2318(4) 0.9878(5)
O5 O 0.9910(3) 0.3762(5) 0.3218(7)
O3_3 O 0.0029(3) 0.1508(4) 0.2608(6)
O12_2 O 0.0488(2) 0.1922(3) 0.0396(5)
O7_2 O 0.0281(2) 0.8923(4) 0.4926(5)
O5_2 O 0.4910(3) 0.1238(5) 0.3218(7)
O6_3 O 0.9185(3) 0.1828(4) 0.1876(4)
N1_3 N 0.7448(3) 0.0215(5) 0.3514(6)
C1_3 C 0.5431(4) 0.1225(5) 0.2913(7)
C3_3 C 0.6442(3) 0.0666(5) 0.3276(6)
H1_3 H 0.657920 0.115298 0.288439
C4_3 C 0.9222(4) 0.0621(5) 0.3130(6)
C6_3 C 0.9585(3) 0.0010(5) 0.3669(6)
H3_3 H 0.998882 0.007473 0.362583
C9_3 C 0.9492(4) 0.1364(5) 0.2495(6)
C11_3 C 0.8620(3) 0.0514(6) 0.3199(7)
H5_3 H 0.837306 0.090522 0.283615
C12_3 C 0.6841(3) 0.0054(5) 0.3702(7)
C16_3 C 0.5856(3) 0.0561(5) 0.3424(7)
O9_3 O 0.8815(6) 0.0056(6) 0.0879(10)
O10_3 O 0.7993(5) 0.1534(10) 0.0784(14)
O11_3 O 0.8636(7) 0.0913(10) 0.8862(10)
O15_2 O 0.9719(2) 0.1077(4) 0.9926(5)
O1_2 O 0.9512(2) 0.8078(3) 0.5396(5)
C2_3 C 0.8387(3) 0.9826(5) 0.3806(6)
N2_3 N 0.7772(3) 0.9668(5) 0.3949(6)
C5_3 C 0.5646(4) 0.9840(5) 0.4024(7)
H2_3 H 0.524818 0.978887 0.416906
C7_3 C 0.8752(4) 0.9219(6) 0.4317(6)
H4_3 H 0.859088 0.874527 0.470190
C8_3 C 0.6036(3) 0.9199(5) 0.4402(6)
C10_3 C 0.9353(3) 0.9314(5) 0.4260(6)
C13_3 C 0.5828(3) 0.8383(5) 0.4997(6)
C14_3 C 0.9753(4) 0.8711(5) 0.4898(7)
C15_3 C 0.6637(3) 0.9311(5) 0.4240(6)
H6_3 H 0.689831 0.888301 0.449555
C2_4 C 0.1613(3) 0.0174(5) 0.8806(6)
N2_4 N 0.2228(3) 0.0332(5) 0.8949(6)
C5_4 C 0.4354(4) 0.0160(5) 0.9024(7)
H2_4 H 0.475182 0.021113 0.916906
C7_4 C 0.1248(4) 0.0781(6) 0.9317(6)
H4_4 H 0.140912 0.125473 0.970190
C8_4 C 0.3964(3) 0.0801(5) 0.9402(6)
C10_4 C 0.0647(3) 0.0686(5) 0.9260(6)
C13_4 C 0.4172(3) 0.1617(5) 0.9997(6)
C14_4 C 0.0247(4) 0.1289(5) 0.9898(7)
C15_4 C 0.3363(3) 0.0689(5) 0.9240(6)
H6_4 H 0.310169 0.111699 0.949555
O5_3 O 0.5090(3) 0.8762(5) 0.8218(7)
O6_4 O 0.0815(3) 0.8172(4) 0.6876(4)
N1_4 N 0.2552(3) 0.9785(5) 0.8514(6)
C1_4 C 0.4569(4) 0.8775(5) 0.7913(7)
C3_4 C 0.3558(3) 0.9334(5) 0.8276(6)
H1_4 H 0.342080 0.884702 0.788439
C4_4 C 0.0778(4) 0.9379(5) 0.8130(6)
C6_4 C 0.0415(3) 0.9990(5) 0.8669(6)
H3_4 H 0.001118 0.992527 0.862583
C9_4 C 0.0508(4) 0.8636(5) 0.7495(6)
C11_4 C 0.1380(3) 0.9486(6) 0.8199(7)
H5_4 H 0.162694 0.909478 0.783615
C12_4 C 0.3159(3) 0.9946(5) 0.8702(7)
C16_4 C 0.4144(3) 0.9439(5) 0.8424(7)
O9_4 O 0.1185(6) 0.9944(6) 0.5879(10)
O10_4 O 0.2007(5) 0.8466(10) 0.5784(14)
O11_4 O 0.1364(7) 0.9087(10) 0.3862(10)
O3_4 O 0.9971(3) 0.8492(4) 0.7608(6)
O5_4 O 0.0090(3) 0.6238(5) 0.8218(7)
loop_
_geom_bond_atom_site_label_1
_geom_bond_atom_site_label_2
_geom_bond_site_symmetry_1
_geom_bond_site_symmetry_2
Zn5 O1 1_555 1_555
Zn1 O6 1_555 1_555
Zn2 O3 1_555 1_555
O3 C9 1_555 1_555
O4 C13 1_555 1_555
O6 Zn2 1_555 1_555
N1 N2 1_555 1_555
O7 C14 1_555 1_555
C1 O8 1_555 1_555
C2 N2 1_555 1_555
O8 Zn7 1_555 1_555
C3 H1 1_555 1_555
C4 C6 1_555 1_555
C5 H2 1_555 1_555
C6 H3 1_555 1_555
C7 C2 1_555 1_555
H4 C7 1_555 1_555
C8 C5 1_555 1_555
C9 O6 1_555 1_555
C10 C6 1_555 1_555
C11 C2 1_555 1_555
H5 C11 1_555 1_555
C12 N1 1_555 1_555
C13 C8 1_555 1_555
C14 C10 1_555 1_555
C15 C8 1_555 1_555
H6 C15 1_555 1_555
C16 C1 1_555 1_555
O9 Zn1 1_555 1_555
O10 Zn1 1_555 1_555
O11 Zn1 1_555 1_555
O12 Zn2 1_555 1_555
O13 Zn2 1_555 1_555
O14 Zn1 1_555 1_555
O15 Zn1 1_555 1_555
O16 Zn2 1_555 1_555
C3 C12 1_555 1_555
C3 C16 1_555 1_555
C4 C9 1_555 1_555
C4 C11 1_555 1_555
C5 C16 1_555 1_555
C7 C10 1_555 1_555
C12 C15 1_555 1_555
Zn3 O6_2 1_555 1_555
Zn5 O3_2 1_555 1_555
O12 C14_2 1_555 1_555
O2_2 C13_2 1_555 1_555
O3_2 C9_2 1_555 1_555
O4_2 C13_2 1_555 1_555
O6_2 Zn5 1_555 1_555
N1_2 N2_2 1_555 1_555
O15 C14_2 1_555 1_555
C1_2 O8_2 1_555 1_555
C2_2 N2_2 1_555 1_555
O8_2 Zn6 1_555 1_555
C3_2 H1_2 1_555 1_555
C4_2 C6_2 1_555 1_555
C5_2 H2_2 1_555 1_555
C6_2 H3_2 1_555 1_555
C7_2 C2_2 1_555 1_555
H4_2 C7_2 1_555 1_555
C8_2 C5_2 1_555 1_555
C9_2 O6_2 1_555 1_555
C10_2 C6_2 1_555 1_555
C11_2 C2_2 1_555 1_555
H5_2 C11_2 1_555 1_555
C12_2 N1_2 1_555 1_555
C13_2 C8_2 1_555 1_555
C14_2 C10_2 1_555 1_555
C15_2 C8_2 1_555 1_555
H6_2 C15_2 1_555 1_555
C16_2 C1_2 1_555 1_555
O9_2 Zn3 1_555 1_555
O10_2 Zn3 1_555 1_555
Zn4_2 O4_2 1_555 1_555
O13_2 Zn5 1_555 1_555
O16_2 Zn5 1_555 1_555
C3_2 C12_2 1_555 1_555
C3_2 C16_2 1_555 1_555
C4_2 C9_2 1_555 1_555
C4_2 C11_2 1_555 1_555
C5_2 C16_2 1_555 1_555
C7_2 C10_2 1_555 1_555
C12_2 C15_2 1_555 1_555
Zn6 O3_3 1_555 1_555
O12_2 Zn6 1_555 1_555
Zn4_2 O7_2 1_555 1_555
Zn4 O6_3 1_555 1_555
O5_2 C1_3 1_555 1_555
C1_3 O16_2 1_555 1_555
C3_3 H1_3 1_555 1_555
C4_3 C6_3 1_555 1_555
C6_3 H3_3 1_555 1_555
C9_3 O6_3 1_555 1_555
H5_3 C11_3 1_555 1_555
C12_3 N1_3 1_555 1_555
C16_3 C1_3 1_555 1_555
O9_3 Zn4 1_555 1_555
O10_3 Zn4 1_555 1_555
C3_3 C12_3 1_555 1_555
C3_3 C16_3 1_555 1_555
C4_3 C9_3 1_555 1_555
C4_3 C11_3 1_555 1_555
O1_2 C14_3 1_555 1_555
O13 C13_3 1_555 1_555
O14 C13_3 1_555 1_555
C2_3 N2_3 1_555 1_555
C5_3 H2_3 1_555 1_555
C7_3 C2_3 1_555 1_555
H4_3 C7_3 1_555 1_555
C8_3 C5_3 1_555 1_555
C13_3 C8_3 1_555 1_555
C14_3 C10_3 1_555 1_555
C15_3 C8_3 1_555 1_555
H6_3 C15_3 1_555 1_555
Zn7 O1_2 1_555 1_555
C7_3 C10_3 1_555 1_555
O14_2 C13_4 1_555 1_555
C2_4 N2_4 1_555 1_555
C5_4 H2_4 1_555 1_555
C7_4 C2_4 1_555 1_555
H4_4 C7_4 1_555 1_555
C8_4 C5_4 1_555 1_555
C13_4 C8_4 1_555 1_555
C14_4 C10_4 1_555 1_555
C15_4 C8_4 1_555 1_555
H6_4 C15_4 1_555 1_555
C7_4 C10_4 1_555 1_555
Zn4_2 O6_4 1_555 1_555
O5_3 C1_4 1_555 1_555
C1_4 O16 1_555 1_555
C3_4 H1_4 1_555 1_555
C4_4 C6_4 1_555 1_555
C6_4 H3_4 1_555 1_555
C9_4 O6_4 1_555 1_555
H5_4 C11_4 1_555 1_555
C12_4 N1_4 1_555 1_555
C16_4 C1_4 1_555 1_555
O9_4 Zn4_2 1_555 1_555
O10_4 Zn4_2 1_555 1_555
O11_4 Zn4_2 1_555 1_555
C3_4 C12_4 1_555 1_555
C3_4 C16_4 1_555 1_555
C4_4 C9_4 1_555 1_555
C4_4 C11_4 1_555 1_555
Zn7 O3_4 1_555 1_555

#END
