
###############################################################################
#
# This file contains modified crystal structure data generated from the
# MOF subset of the Cambridge Structural Database (CSD) v542 
# hosted by the Cambridge Crystallographic Data Centre (CCDC).
#
# This work is licensed under the Creative Commons
# Attribution-NonCommercial-ShareAlike 4.0 International License.
# To view a copy of this license, visit
# http://creativecommons.org/licenses/by-nc-sa/4.0/
# or send a letter to
# Creative Commons, PO Box 1866, Mountain View, CA 94042, USA.
#
# CIF created using the CSD Python API on 22 February 2021
# The structure has been converted into the P1 space group
# The structure has a 3D framework
# The original CSD entry LUKLOV is in the triclinic crystal system
# The framework has been calculated to contain at least 10.0% void space
# The void calculation uses a probe of radius 1.32A, grid spacing 0.4
#
###############################################################################

data_LUKLOV
_chemical_formula_moiety         '(C96 H68 Ca9 N24 O25)n'
_symmetry_cell_setting           triclinic
_symmetry_space_group_name_H-M   'P 1'
_symmetry_Int_Tables_number      1
_space_group_name_Hall           'P 1'
loop_
_symmetry_equiv_pos_site_id
_symmetry_equiv_pos_as_xyz
1 x,y,z
_cell_length_a                   15.8421(11)
_cell_length_b                   17.6269(12)
_cell_length_c                   18.9855(15)
_cell_angle_alpha                108.762(6)
_cell_angle_beta                 112.457(6)
_cell_angle_gamma                92.024(4)
_cell_volume                     4562.83
loop_
_atom_site_label
_atom_site_type_symbol
_atom_site_fract_x
_atom_site_fract_y
_atom_site_fract_z
Ca1 Ca 0.000000 0.000000 0.000000
Ca3 Ca 0.500000 0.000000 0.000000
Ca17 Ca 0.77024(5) 0.01979(5) 0.03395(5)
O33 O 0.38639(19) 0.08151(18) 0.06602(17)
O37 O 0.64133(18) 0.09404(18) 0.0109(2)
O50 O 0.5258(2) 0.0630(2) 0.1399(2)
Ca1_2 Ca 0.000000 -0.000000 1.000000
Ca3_2 Ca 0.500000 -0.000000 1.000000
O12 O 0.8216(2) 0.0326(2) 0.1783(2)
O34 O 0.0984(2) 0.08638(17) 0.9866(2)
O44 O 0.32531(19) 0.02741(18) 0.90044(17)
O49 O 0.5080(2) 0.13502(19) 0.9917(2)
O48 O 0.2196(2) 0.1305(2) 0.9741(3)
Ca1_3 Ca 0.000000 1.000000 0.000000
Ca3_3 Ca 0.500000 1.000000 0.000000
Ca4 Ca 0.63141(6) 0.83325(6) 0.00726(7)
O10 O 0.4920(2) 0.86498(19) 0.0083(2)
N2 N 0.1051(2) 0.5047(2) 0.1267(3)
N6 N 0.1682(2) 0.6085(2) 0.0963(3)
C1 C 0.0925(3) 0.2173(2) 0.1501(3)
H3 H 0.111520 0.168668 0.152980
N8 N 0.0176(3) 0.5953(3) 0.0923(3)
N9 N 0.1972(3) 0.4124(2) 0.1629(3)
H5 H 0.253818 0.406302 0.184881
C8 C 0.4109(3) 0.8580(2) 0.0081(3)
N10 N 0.2601(3) 0.5121(3) 0.1363(3)
H7 H 0.034174 0.836945 0.066388
C12 C 0.1565(3) 0.2810(3) 0.1625(3)
H8 H 0.218373 0.275743 0.175622
C15 C 0.2942(3) 0.7727(3) 0.0248(4)
H10 H 0.248646 0.799775 0.001241
C19 C 0.3835(3) 0.7934(3) 0.0344(3)
C24 C 0.1003(3) 0.5697(3) 0.1053(3)
O13 O 0.6707(4) 0.7649(4) 0.0938(4)
C27 C 0.1282(3) 0.3524(3) 0.1552(3)
C28 C 0.1844(3) 0.4785(3) 0.1395(3)
N12 N 0.3231(3) 0.6105(3) 0.1114(4)
H17 H 0.371835 0.590304 0.130166
C30 C 0.0384(3) 0.7291(3) 0.0788(4)
H19 H 0.101717 0.730612 0.092996
C32 C 0.2707(3) 0.7126(3) 0.0494(4)
H20 H 0.210123 0.699820 0.043165
C36 C 0.0355(3) 0.3624(3) 0.1419(4)
H24 H 0.016694 0.411487 0.140617
C40 C 0.2461(3) 0.5770(3) 0.1142(4)
C43 C 0.3366(3) 0.6727(3) 0.0828(4)
C46 C 0.4511(4) 0.7593(4) 0.0765(5)
H30 H 0.512753 0.776614 0.088262
C48 C 0.4297(4) 0.7001(5) 0.1018(6)
H32 H 0.476537 0.677908 0.131486
O38 O 0.11349(19) 0.9944(2) 0.1247(2)
O41 O 0.67469(19) 0.97259(18) 0.09956(17)
O46 O 0.7804(2) 0.8695(2) 0.0259(3)
Ca1_4 Ca 0.000000 1.000000 1.000000
Ca3_4 Ca 0.500000 1.000000 1.000000
O2 O 0.61361(19) 0.91849(18) 0.93398(17)
O3 O 0.2203(2) 0.9667(2) 0.0757(2)
O5 O 0.35867(18) 0.90596(18) 0.9891(2)
O11 O 0.4742(2) 0.9370(2) 0.8601(2)
N1 N 0.5333(2) 0.8707(3) 0.5031(2)
N3 N 0.6528(3) 0.8382(3) 0.6011(2)
H1 H 0.699951 0.814150 0.607556
N4 N 0.5696(2) 0.9027(3) 0.4039(2)
N5 N 0.4220(2) 0.9035(3) 0.4065(2)
H2 H 0.392409 0.899220 0.435080
N7 N 0.6866(3) 0.8654(3) 0.5062(3)
C5 C 0.5718(3) 0.8861(3) 0.7935(2)
C7 C 0.2517(3) 0.9536(3) 0.2015(3)
C9 C 0.5511(3) 0.9143(3) 0.8664(3)
C10 C 0.6522(3) 0.8565(3) 0.7964(3)
H6 H 0.691517 0.849186 0.843789
C13 C 0.6752(3) 0.8377(3) 0.7309(3)
H9 H 0.728953 0.816947 0.733167
C14 C 0.1911(3) 0.9731(3) 0.1290(3)
C16 C 0.6169(3) 0.8503(3) 0.6610(3)
C17 C 0.7453(3) 0.9955(3) 0.1678(3)
C18 C 0.5128(3) 0.8923(3) 0.4380(3)
C20 C 0.3347(3) 0.9280(3) 0.2068(3)
H11 H 0.352192 0.922815 0.164157
C21 C 0.3684(3) 0.9206(3) 0.3370(3)
C22 C 0.6511(3) 0.9446(4) 0.2288(3)
H12 H 0.597543 0.940289 0.183297
N11 N 0.7247(3) 0.8991(4) 0.4176(3)
H14 H 0.776682 0.887461 0.444491
C25 C 0.6214(3) 0.8603(3) 0.5350(3)
C26 C 0.7368(3) 0.9755(4) 0.2352(3)
C29 C 0.2285(3) 0.9641(4) 0.2662(3)
H18 H 0.173957 0.982619 0.265150
C33 C 0.6442(3) 0.9209(4) 0.2877(3)
H21 H 0.586407 0.900852 0.282904
C34 C 0.5114(3) 0.8949(3) 0.7217(3)
H22 H 0.456457 0.913745 0.718604
C35 C 0.5338(3) 0.8757(3) 0.6554(3)
H23 H 0.492946 0.879777 0.606841
C38 C 0.6562(3) 0.8882(4) 0.4418(3)
C39 C 0.3922(3) 0.9099(4) 0.2719(3)
H26 H 0.446333 0.890808 0.272366
C41 C 0.2851(3) 0.9473(4) 0.3317(3)
H27 H 0.267798 0.953954 0.374646
C44 C 0.7239(3) 0.9266(4) 0.3552(3)
C45 C 0.8173(4) 0.9799(5) 0.3022(4)
H29 H 0.875200 0.998392 0.306099
C47 C 0.8103(4) 0.9565(6) 0.3624(4)
H31 H 0.863508 0.960702 0.408163
O14 O 0.5663(7) 0.7188(5) 0.8932(6)
Ca13 Ca 0.22976(5) 0.98021(5) 0.96605(5)
O30 O 0.05611(18) 0.91590(15) 0.91213(17)
O20 O 0.15022(19) 0.83451(18) 0.8858(2)
C50 C 0.0730(3) 0.8454(2) 0.8880(2)
C51 C 0.0973(3) 0.2073(2) 0.9587(3)
C52 C 0.1401(3) 0.1379(2) 0.9744(3)
H38 H 0.021675 0.435777 0.903278
C54 C 0.0005(3) 0.7756(2) 0.8667(3)
C59 C 0.0026(3) 0.2077(3) 0.9372(3)
C71 C 0.0262(3) 0.7020(3) 0.8690(3)
H47 H 0.087141 0.695666 0.878292
C79 C 0.0174(3) 0.3383(3) 0.9268(4)
C85 C 0.1508(3) 0.2752(3) 0.9649(4)
H59 H 0.213987 0.276581 0.978760
C90 C 0.1125(3) 0.3403(3) 0.9511(4)
H62 H 0.150241 0.386100 0.958001
Ca24 Ca 0.36859(6) 0.16675(6) 0.99274(7)
O52 O 0.1784(2) 0.9674(2) 0.8217(2)
Ca1_5 Ca 1.000000 0.000000 0.000000
O29 O 0.94389(18) 0.08410(15) 0.08787(17)
Ca1_6 Ca 1.000000 -0.000000 1.000000
O39 O 0.88651(19) 0.0056(2) 0.8753(2)
Ca1_7 Ca 1.000000 1.000000 0.000000
O4 O 0.9016(2) 0.91362(17) 0.0134(2)
O6 O 0.84978(19) 0.16549(18) 0.1142(2)
C2 C 0.9270(3) 0.1546(2) 0.1120(2)
C3 C 0.9027(3) 0.7927(2) 0.0413(3)
C4 C 0.8599(3) 0.8621(2) 0.0256(3)
H4 H 0.978325 0.564223 0.096722
C6 C 0.9995(3) 0.2244(2) 0.1333(3)
C11 C 0.9974(3) 0.7923(3) 0.0628(3)
C23 C 0.9738(3) 0.2980(3) 0.1310(3)
H13 H 0.912859 0.304334 0.121708
C31 C 0.9826(3) 0.6617(3) 0.0732(4)
C37 C 0.8492(3) 0.7248(3) 0.0351(4)
H25 H 0.786013 0.723419 0.021240
C42 C 0.8875(3) 0.6597(3) 0.0489(4)
H28 H 0.849759 0.613900 0.041999
Ca1_8 Ca 1.000000 1.000000 1.000000
O17 O 0.7797(2) 0.0333(2) 0.9243(2)
N13 N 0.4667(2) 0.1293(3) 0.4969(2)
N15 N 0.3472(3) 0.1618(3) 0.3989(2)
H35 H 0.300049 0.185850 0.392444
N16 N 0.4304(2) 0.0973(3) 0.5961(2)
N17 N 0.5780(2) 0.0965(3) 0.5935(2)
H36 H 0.607591 0.100780 0.564920
N19 N 0.3134(3) 0.1346(3) 0.4938(3)
C53 C 0.4282(3) 0.1139(3) 0.2065(2)
C55 C 0.7483(3) 0.0464(3) 0.7985(3)
C57 C 0.4489(3) 0.0857(3) 0.1336(3)
C58 C 0.3478(3) 0.1435(3) 0.2036(3)
H40 H 0.308483 0.150814 0.156211
C61 C 0.3248(3) 0.1623(3) 0.2691(3)
H43 H 0.271047 0.183053 0.266833
C62 C 0.8089(3) 0.0269(3) 0.8710(3)
C64 C 0.3831(3) 0.1497(3) 0.3390(3)
C65 C 0.2547(3) 0.0045(3) 0.8322(3)
C66 C 0.4872(3) 0.1077(3) 0.5620(3)
C68 C 0.6653(3) 0.0720(3) 0.7932(3)
H45 H 0.647808 0.077185 0.835843
C69 C 0.6316(3) 0.0794(3) 0.6630(3)
C70 C 0.3489(3) 0.0554(4) 0.7712(3)
H46 H 0.402457 0.059711 0.816703
N23 N 0.2753(3) 0.1009(4) 0.5824(3)
H48 H 0.223318 0.112539 0.555509
C73 C 0.3786(3) 0.1397(3) 0.4650(3)
C74 C 0.2632(3) 0.0245(4) 0.7648(3)
C77 C 0.7715(3) 0.0359(4) 0.7338(3)
H52 H 0.826043 0.017381 0.734850
C81 C 0.3558(3) 0.0791(4) 0.7123(3)
H55 H 0.413593 0.099148 0.717096
C82 C 0.4886(3) 0.1051(3) 0.2783(3)
H56 H 0.543543 0.086255 0.281396
C83 C 0.4662(3) 0.1243(3) 0.3446(3)
H57 H 0.507054 0.120223 0.393159
C86 C 0.3438(3) 0.1118(4) 0.5582(3)
C87 C 0.6078(3) 0.0901(4) 0.7281(3)
H60 H 0.553667 0.109192 0.727634
C89 C 0.7149(3) 0.0527(4) 0.6683(3)
H61 H 0.732202 0.046046 0.625354
C92 C 0.2761(3) 0.0734(4) 0.6448(3)
C93 C 0.1827(4) 0.0201(5) 0.6978(4)
H63 H 0.124800 0.001608 0.693901
C95 C 0.1897(4) 0.0435(6) 0.6376(4)
H65 H 0.136492 0.039298 0.591837
O28 O 0.4337(7) 0.2812(5) 0.1068(6)
N14 N 0.8949(2) 0.4953(2) 0.8733(3)
N18 N 0.8318(2) 0.3915(2) 0.9037(3)
C49 C 0.9075(3) 0.7827(2) 0.8499(3)
H37 H 0.888480 0.831332 0.847020
N20 N 0.9824(3) 0.4047(3) 0.9077(3)
N21 N 0.8028(3) 0.5876(2) 0.8371(3)
H39 H 0.746182 0.593698 0.815119
C56 C 0.5891(3) 0.1420(2) 0.9919(3)
N22 N 0.7399(3) 0.4879(3) 0.8637(3)
H41 H 0.965826 0.163055 0.933612
C60 C 0.8435(3) 0.7190(3) 0.8375(3)
H42 H 0.781627 0.724257 0.824378
C63 C 0.7058(3) 0.2273(3) 0.9752(4)
H44 H 0.751354 0.200225 0.998759
C67 C 0.6165(3) 0.2066(3) 0.9656(3)
C72 C 0.8997(3) 0.4303(3) 0.8947(3)
O27 O 0.3293(4) 0.2351(4) 0.9062(4)
C75 C 0.8718(3) 0.6476(3) 0.8448(3)
C76 C 0.8156(3) 0.5215(3) 0.8605(3)
N24 N 0.6769(3) 0.3895(3) 0.8886(4)
H51 H 0.628165 0.409696 0.869834
C78 C 0.9616(3) 0.2709(3) 0.9212(4)
H53 H 0.898283 0.269388 0.907004
C80 C 0.7293(3) 0.2874(3) 0.9506(4)
H54 H 0.789877 0.300180 0.956835
C84 C 0.9645(3) 0.6376(3) 0.8581(4)
H58 H 0.983306 0.588513 0.859383
C88 C 0.7539(3) 0.4230(3) 0.8858(4)
C91 C 0.6634(3) 0.3273(3) 0.9172(4)
C94 C 0.5489(4) 0.2407(4) 0.9235(5)
H64 H 0.487247 0.223386 0.911738
C96 C 0.5703(4) 0.2999(5) 0.8982(6)
H66 H 0.523463 0.322092 0.868514
loop_
_geom_bond_atom_site_label_1
_geom_bond_atom_site_label_2
_geom_bond_site_symmetry_1
_geom_bond_site_symmetry_2
O33 Ca3 1_555 1_555
O37 Ca3 1_555 1_555
O50 Ca3 1_555 1_555
Ca17 O37 1_555 1_555
O34 Ca1_2 1_555 1_555
O44 Ca3_2 1_555 1_555
O49 Ca3_2 1_555 1_555
O12 Ca17 1_555 1_555
O10 Ca3_3 1_555 1_555
N2 C24 1_555 1_555
N6 C24 1_555 1_555
C1 H3 1_555 1_555
N9 H5 1_555 1_555
N10 C28 1_555 1_555
C12 C1 1_555 1_555
H8 C12 1_555 1_555
C15 H10 1_555 1_555
C19 C8 1_555 1_555
C24 N8 1_555 1_555
O13 Ca4 1_555 1_555
C27 N9 1_555 1_555
C28 N2 1_555 1_555
N12 H17 1_555 1_555
H19 C30 1_555 1_555
C32 C15 1_555 1_555
H20 C32 1_555 1_555
H24 C36 1_555 1_555
C40 N6 1_555 1_555
C43 N12 1_555 1_555
C46 C19 1_555 1_555
H30 C46 1_555 1_555
C48 C43 1_555 1_555
H32 C48 1_555 1_555
O38 Ca1_3 1_555 1_555
O41 Ca3_3 1_555 1_555
O46 Ca4 1_555 1_555
Ca4 O10 1_555 1_555
Ca4 O41 1_555 1_555
O10 C8 1_555 1_555
N9 C28 1_555 1_555
N10 C40 1_555 1_555
C12 C27 1_555 1_555
C15 C19 1_555 1_555
C27 C36 1_555 1_555
N12 C40 1_555 1_555
C32 C43 1_555 1_555
C46 C48 1_555 1_555
Ca3_4 O2 1_555 1_555
O2 C9 1_555 1_555
O3 C14 1_555 1_555
O5 Ca3_4 1_555 1_555
O38 C14 1_555 1_555
O41 C17 1_555 1_555
O11 Ca3_4 1_555 1_555
N1 C18 1_555 1_555
N3 H1 1_555 1_555
N4 C18 1_555 1_555
N5 H2 1_555 1_555
N7 C25 1_555 1_555
C5 C9 1_555 1_555
C7 C14 1_555 1_555
C9 O11 1_555 1_555
C10 C5 1_555 1_555
H6 C10 1_555 1_555
C13 C10 1_555 1_555
H9 C13 1_555 1_555
C16 N3 1_555 1_555
C17 C26 1_555 1_555
C18 N5 1_555 1_555
C20 C7 1_555 1_555
H11 C20 1_555 1_555
C21 N5 1_555 1_555
C22 H12 1_555 1_555
N11 H14 1_555 1_555
C25 N1 1_555 1_555
C26 C22 1_555 1_555
C29 C7 1_555 1_555
H18 C29 1_555 1_555
C33 C22 1_555 1_555
H21 C33 1_555 1_555
C34 C5 1_555 1_555
H22 C34 1_555 1_555
C35 C16 1_555 1_555
H23 C35 1_555 1_555
C38 N4 1_555 1_555
C39 C20 1_555 1_555
H26 C39 1_555 1_555
C41 C21 1_555 1_555
H27 C41 1_555 1_555
C44 N11 1_555 1_555
C45 C26 1_555 1_555
H29 C45 1_555 1_555
C47 C44 1_555 1_555
H31 C47 1_555 1_555
Ca13 O5 1_555 1_555
O30 Ca1_4 1_555 1_555
N3 C25 1_555 1_555
N7 C38 1_555 1_555
C13 C16 1_555 1_555
C21 C39 1_555 1_555
N11 C38 1_555 1_555
C29 C41 1_555 1_555
C33 C44 1_555 1_555
C34 C35 1_555 1_555
C45 C47 1_555 1_555
Ca13 O30 1_555 1_555
O34 C52 1_555 1_555
O20 Ca13 1_555 1_555
O48 C52 1_555 1_555
C50 O30 1_555 1_555
C51 C52 1_555 1_555
C59 C51 1_555 1_555
C71 C54 1_555 1_555
H47 C71 1_555 1_555
C85 C51 1_555 1_555
H59 C85 1_555 1_555
C90 C79 1_555 1_555
H62 C90 1_555 1_555
Ca24 O48 1_555 1_555
O52 Ca13 1_555 1_555
O20 C50 1_555 1_555
C50 C54 1_555 1_555
C85 C90 1_555 1_555
O29 Ca1_5 1_555 1_555
Ca17 O29 1_555 1_555
O39 Ca1_6 1_555 1_555
Ca1_7 O4 1_555 1_555
O29 C2 1_555 1_555
O4 C4 1_555 1_555
O6 C2 1_555 1_555
O46 C4 1_555 1_555
C2 C6 1_555 1_555
C3 C4 1_555 1_555
C11 C3 1_555 1_555
C23 C6 1_555 1_555
H13 C23 1_555 1_555
C37 C3 1_555 1_555
H25 C37 1_555 1_555
C42 C31 1_555 1_555
H28 C42 1_555 1_555
O6 Ca17 1_555 1_555
C37 C42 1_555 1_555
O33 C57 1_555 1_555
O39 C62 1_555 1_555
O44 C65 1_555 1_555
O50 C57 1_555 1_555
N13 C66 1_555 1_555
N15 H35 1_555 1_555
N16 C66 1_555 1_555
N17 H36 1_555 1_555
N19 C73 1_555 1_555
C53 C57 1_555 1_555
C55 C62 1_555 1_555
C58 C53 1_555 1_555
H40 C58 1_555 1_555
C61 C58 1_555 1_555
H43 C61 1_555 1_555
C62 O17 1_555 1_555
C64 N15 1_555 1_555
C65 C74 1_555 1_555
C66 N17 1_555 1_555
C68 C55 1_555 1_555
H45 C68 1_555 1_555
C69 N17 1_555 1_555
C70 H46 1_555 1_555
N23 H48 1_555 1_555
C73 N13 1_555 1_555
C74 C70 1_555 1_555
C77 C55 1_555 1_555
H52 C77 1_555 1_555
C81 C70 1_555 1_555
H55 C81 1_555 1_555
C82 C53 1_555 1_555
H56 C82 1_555 1_555
C83 C64 1_555 1_555
H57 C83 1_555 1_555
C86 N16 1_555 1_555
C87 C68 1_555 1_555
H60 C87 1_555 1_555
C89 C69 1_555 1_555
H61 C89 1_555 1_555
C92 N23 1_555 1_555
C93 C74 1_555 1_555
H63 C93 1_555 1_555
C95 C92 1_555 1_555
H65 C95 1_555 1_555
Ca24 O44 1_555 1_555
N15 C73 1_555 1_555
N19 C86 1_555 1_555
C61 C64 1_555 1_555
C69 C87 1_555 1_555
N23 C86 1_555 1_555
C77 C89 1_555 1_555
C81 C92 1_555 1_555
C82 C83 1_555 1_555
C93 C95 1_555 1_555
O49 Ca24 1_555 1_555
N14 C72 1_555 1_555
N18 C72 1_555 1_555
C49 H37 1_555 1_555
N21 H39 1_555 1_555
C56 O49 1_555 1_555
N22 C76 1_555 1_555
C60 C49 1_555 1_555
H42 C60 1_555 1_555
C63 H44 1_555 1_555
C67 C56 1_555 1_555
C72 N20 1_555 1_555
O27 Ca24 1_555 1_555
C75 N21 1_555 1_555
C76 N14 1_555 1_555
N24 H51 1_555 1_555
H53 C78 1_555 1_555
C80 C63 1_555 1_555
H54 C80 1_555 1_555
H58 C84 1_555 1_555
C88 N18 1_555 1_555
C91 N24 1_555 1_555
C94 C67 1_555 1_555
H64 C94 1_555 1_555
C96 C91 1_555 1_555
H66 C96 1_555 1_555
N21 C76 1_555 1_555
N22 C88 1_555 1_555
C60 C75 1_555 1_555
C63 C67 1_555 1_555
C75 C84 1_555 1_555
N24 C88 1_555 1_555
C80 C91 1_555 1_555
C94 C96 1_555 1_555

#END
