
###############################################################################
#
# This file contains modified crystal structure data generated from the
# MOF subset of the Cambridge Structural Database (CSD) v542 
# hosted by the Cambridge Crystallographic Data Centre (CCDC).
#
# This work is licensed under the Creative Commons
# Attribution-NonCommercial-ShareAlike 4.0 International License.
# To view a copy of this license, visit
# http://creativecommons.org/licenses/by-nc-sa/4.0/
# or send a letter to
# Creative Commons, PO Box 1866, Mountain View, CA 94042, USA.
#
# CIF created using the CSD Python API on 22 February 2021
# The structure has been converted into the P1 space group
# The structure has a 3D framework
# The original CSD entry MIRGIG is in the orthorhombic crystal system
# The original CSD entry MIRGIG is in a Sohncke space group
# The framework has been calculated to contain at least 10.0% void space
# The void calculation uses a probe of radius 1.32A, grid spacing 0.4
#
###############################################################################

data_MIRGIG
_chemical_formula_moiety         '(C145 H77 Gd8 O56)n'
_symmetry_cell_setting           triclinic
_symmetry_space_group_name_H-M   'P 1'
_symmetry_Int_Tables_number      1
_space_group_name_Hall           'P 1'
loop_
_symmetry_equiv_pos_site_id
_symmetry_equiv_pos_as_xyz
1 x,y,z
_cell_length_a                   28.3269(2)
_cell_length_b                   14.3386(6)
_cell_length_c                   14.9223(2)
_cell_angle_alpha                90
_cell_angle_beta                 90
_cell_angle_gamma                90
_cell_volume                     6060.96
loop_
_atom_site_label
_atom_site_type_symbol
_atom_site_fract_x
_atom_site_fract_y
_atom_site_fract_z
C21 C -0.000000 0.000000 0.0505(6)
C22 C 0.0165(2) 0.0755(4) 0.1014(4)
H10 H 0.027194 0.128476 0.071708
C23 C 0.0175(2) 0.0742(4) 0.1924(4)
C24 C 0.0355(2) 0.1562(4) 0.2477(4)
C25 C 0.000000 0.000000 0.2414(6)
H11 H -0.000001 0.000001 0.30377
O10 O 0.04489(15) 0.1460(3) 0.3309(2)
O11 O 0.04072(16) 0.2315(3) 0.2067(3)
Gd7 Gd 0.04962(2) 0.11491(2) 0.48343(2)
Gd14 Gd 0.05645(2) 0.37879(2) 0.25506(2)
C16 C -0.000000 0.000000 0.6543(6)
C17 C 0.000000 0.000000 0.7584(7)
C20 C 0.000000 0.000000 0.9551(7)
C36 C 0.0297(3) 0.0558(5) 0.8069(5)
H20 H 0.048533 0.097738 0.775703
C37 C 0.0337(3) 0.0538(5) 0.9045(5)
H21 H 0.057550 0.086675 0.933383
O15 O 0.02534(14) 0.0575(3) 0.6187(3)
C21_2 C 0.000000 1.000000 0.0505(6)
C25_2 C 0.000000 1.000000 0.2414(6)
H11_2 H -0.000001 1.000001 0.30377
C35 C 0.000000 0.500000 0.0822(6)
O20 O 0.02603(17) 0.4419(3) 0.1224(3)
C16_2 C -0.000000 1.000000 0.6543(6)
C17_2 C 0.000000 1.000000 0.7584(7)
C20_2 C 0.000000 1.000000 0.9551(7)
C28 C -0.000000 0.500000 0.4902(7)
H12 H -0.000001 0.499998 0.427857
C30 C 0.000000 0.500000 0.69180(19)
C31 C 0.000000 0.500000 0.78547(18)
C34 C -0.000000 0.500000 0.9780(6)
C41 C 0.03094(19) 0.3382(3) 0.4886(4)
C42 C 0.0137(2) 0.4229(4) 0.5389(4)
C43 C 0.0122(2) 0.4200(4) 0.6348(4)
H23 H 0.019424 0.363788 0.662772
C44 C 0.0263(4) 0.4361(7) 0.8387(6)
H24 H 0.044856 0.391046 0.810948
C45 C 0.0247(3) 0.4404(6) 0.9318(6)
H25 H 0.042741 0.397318 0.963557
O18 O 0.04525(17) 0.3508(3) 0.4086(3)
O19 O 0.02831(15) 0.2603(3) 0.5281(3)
C46 C 0.1894(2) 0.1885(4) 0.5528(5)
C47 C 0.2091(2) 0.1627(5) 0.6361(4)
H26 H 0.190450 0.138023 0.681515
C48 C 0.2551(3) 0.1750(5) 0.6472(5)
H27 H 0.269053 0.150889 0.698633
C49 C 0.2840(2) 0.2227(5) 0.5852(5)
C50 C 0.2636(2) 0.2490(5) 0.5031(5)
H28 H 0.283257 0.276211 0.460690
C51 C 0.2167(2) 0.2376(5) 0.4804(5)
H29 H 0.203503 0.257852 0.426758
C52 C 0.3351(2) 0.2335(4) 0.6005(5)
C53 C 0.3600(2) 0.1627(4) 0.6382(5)
H30 H 0.345415 0.107159 0.654502
C54 C 0.40957(19) 0.1767(4) 0.6520(5)
C55 C 0.4303(2) 0.2572(4) 0.6287(4)
H31 H 0.462192 0.266099 0.640451
C56 C 0.40460(19) 0.3272(4) 0.5872(5)
C57 C 0.3570(2) 0.3171(4) 0.5736(5)
H32 H 0.339473 0.364553 0.547194
C58 C 0.13978(19) 0.1693(4) 0.5284(4)
C59 C 0.4377(2) 0.0989(4) 0.6918(5)
C60 C 0.4270(2) 0.4165(4) 0.5589(5)
O21 O 0.11275(13) 0.1351(3) 0.5904(3)
O22 O 0.11669(17) 0.3859(5) 0.1473(4)
O23 O 0.12320(14) 0.1867(3) 0.4499(3)
O24 O 0.12708(16) 0.3123(3) 0.3129(3)
O25 O 0.47118(14) 0.4178(3) 0.5474(3)
O26 O 0.40253(15) 0.4856(3) 0.5507(4)
O27 O 0.47821(14) 0.1132(3) 0.7172(3)
O28 O 0.41914(17) 0.0219(3) 0.6970(3)
Gd9 Gd 0.54962(2) 0.38509(2) 0.51657(2)
Gd11 Gd 0.45038(2) 0.61491(2) 0.51657(2)
Gd16 Gd 0.55645(2) 0.12121(2) 0.74494(2)
O30 O 0.02882(14) 0.9178(3) 0.4526(3)
O34 O 0.02179(14) 0.6132(3) 0.2828(3)
O36 O 0.08086(17) 0.5219(3) 0.3030(3)
Gd18 Gd 0.44355(2) 0.87879(2) 0.74494(2)
O32 O 0.09747(15) 0.9856(3) 0.4493(4)
C21_3 C 1.000000 0.000000 0.0505(6)
C25_3 C 1.000000 0.000000 0.2414(6)
H11_3 H 0.999999 0.000001 0.30377
C16_3 C 1.000000 0.000000 0.6543(6)
C17_3 C 1.000000 0.000000 0.7584(7)
C20_3 C 1.000000 0.000000 0.9551(7)
O31 O 0.90253(15) 0.0144(3) 0.4493(4)
C21_4 C 1.000000 1.000000 0.0505(6)
C25_4 C 1.000000 1.000000 0.2414(6)
H11_4 H 0.999999 1.000001 0.30377
C35_2 C 1.000000 0.500000 0.0822(6)
O14 O 0.97397(17) 0.5581(3) 0.1224(3)
C38 C 0.9835(2) 0.9245(4) 0.1014(4)
H22 H 0.972806 0.871524 0.071708
C39 C 0.9825(2) 0.9258(4) 0.1924(4)
C40 C 0.9645(2) 0.8438(4) 0.2477(4)
O16 O 0.95511(15) 0.8540(3) 0.3309(2)
O17 O 0.95928(16) 0.7685(3) 0.2067(3)
Gd5 Gd 0.95038(2) 0.88509(2) 0.48343(2)
Gd12 Gd 0.94355(2) 0.62121(2) 0.25506(2)
C1 C 0.8106(2) 0.8115(4) 0.5528(5)
C2 C 0.7909(2) 0.8373(5) 0.6361(4)
H1 H 0.809550 0.861977 0.681515
C3 C 0.7449(3) 0.8250(5) 0.6472(5)
H2 H 0.730947 0.849111 0.698633
C4 C 0.7160(2) 0.7773(5) 0.5852(5)
C5 C 0.7364(2) 0.7510(5) 0.5031(5)
H3 H 0.716743 0.723789 0.460690
C6 C 0.7833(2) 0.7624(5) 0.4804(5)
H4 H 0.796497 0.742148 0.426758
C7 C 0.6649(2) 0.7665(4) 0.6005(5)
C8 C 0.6400(2) 0.8373(4) 0.6382(5)
H5 H 0.654585 0.892841 0.654502
C9 C 0.59043(19) 0.8233(4) 0.6520(5)
C10 C 0.5697(2) 0.7428(4) 0.6287(4)
H6 H 0.537808 0.733901 0.640451
C11 C 0.59540(19) 0.6728(4) 0.5872(5)
C12 C 0.6430(2) 0.6829(4) 0.5736(5)
H7 H 0.660527 0.635447 0.547194
C13 C 0.86022(19) 0.8307(4) 0.5284(4)
C14 C 0.5623(2) 0.9011(4) 0.6918(5)
C15 C 0.5730(2) 0.5835(4) 0.5589(5)
C16_4 C 1.000000 1.000000 0.6543(6)
C17_4 C 1.000000 1.000000 0.7584(7)
C18 C 0.9703(3) 0.9442(5) 0.8069(5)
H8 H 0.951467 0.902262 0.775703
C19 C 0.9663(3) 0.9462(5) 0.9045(5)
H9 H 0.942450 0.913325 0.933383
C20_4 C 1.000000 1.000000 0.9551(7)
C26 C 0.96906(19) 0.6618(3) 0.4886(4)
C27 C 0.9863(2) 0.5771(4) 0.5389(4)
C28_2 C 1.000000 0.500000 0.4902(7)
H12_2 H 0.999999 0.499998 0.427857
C29 C 0.9878(2) 0.5800(4) 0.6348(4)
H13 H 0.980576 0.636212 0.662772
C30_2 C 1.000000 0.500000 0.69180(19)
C31_2 C 1.000000 0.500000 0.78547(18)
C32 C 0.9737(4) 0.5639(7) 0.8387(6)
H14 H 0.955144 0.608954 0.810948
C33 C 0.9753(3) 0.5596(6) 0.9318(6)
H15 H 0.957259 0.602682 0.963557
C34_2 C 1.000000 0.500000 0.9780(6)
O1 O 0.88725(13) 0.8649(3) 0.5904(3)
O2 O 0.88331(17) 0.6141(5) 0.1473(4)
O3 O 0.87680(14) 0.8133(3) 0.4499(3)
O4 O 0.87292(16) 0.6877(3) 0.3129(3)
O5 O 0.52882(14) 0.5822(3) 0.5474(3)
O6 O 0.59747(15) 0.5144(3) 0.5507(4)
O7 O 0.52179(14) 0.8868(3) 0.7172(3)
O8 O 0.58086(17) 0.9781(3) 0.6970(3)
O9 O 0.97466(14) 0.9425(3) 0.6187(3)
O12 O 0.95475(17) 0.6492(3) 0.4086(3)
O13 O 0.97169(15) 0.7397(3) 0.5281(3)
O29 O 0.97118(14) 0.0822(3) 0.4526(3)
O33 O 0.97821(14) 0.3868(3) 0.2828(3)
O35 O 0.91914(17) 0.4781(3) 0.3030(3)
C1_2 C 0.6894(2) 0.3115(4) 0.4472(5)
C2_2 C 0.7091(2) 0.3373(5) 0.3639(4)
H1_2 H 0.690450 0.361977 0.318485
C3_2 C 0.7551(3) 0.3250(5) 0.3528(5)
H2_2 H 0.769053 0.349111 0.301367
C4_2 C 0.7840(2) 0.2773(5) 0.4148(5)
C5_2 C 0.7636(2) 0.2510(5) 0.4969(5)
H3_2 H 0.783257 0.223789 0.539310
C6_2 C 0.7167(2) 0.2624(5) 0.5196(5)
H4_2 H 0.703503 0.242148 0.573242
C7_2 C 0.8351(2) 0.2665(4) 0.3995(5)
C8_2 C 0.8600(2) 0.3373(4) 0.3618(5)
H5_2 H 0.845415 0.392841 0.345498
C9_2 C 0.90957(19) 0.3233(4) 0.3480(5)
C10_2 C 0.9303(2) 0.2428(4) 0.3713(4)
H6_2 H 0.962192 0.233901 0.359549
C11_2 C 0.90460(19) 0.1728(4) 0.4128(5)
C12_2 C 0.8570(2) 0.1829(4) 0.4264(5)
H7_2 H 0.839473 0.135447 0.452806
C13_2 C 0.63978(19) 0.3307(4) 0.4716(4)
C14_2 C 0.9377(2) 0.4011(4) 0.3082(5)
C15_2 C 0.9270(2) 0.0835(4) 0.4411(5)
C16_5 C 0.500000 0.500000 0.3457(6)
C17_5 C 0.500000 0.500000 0.2416(7)
C18_2 C 0.5297(3) 0.4442(5) 0.1931(5)
H8_2 H 0.548533 0.402262 0.224297
C19_2 C 0.5337(3) 0.4462(5) 0.0955(5)
H9_2 H 0.557550 0.413325 0.066617
C20_5 C 0.500000 0.500000 0.0449(7)
C26_2 C 0.53094(19) 0.1618(3) 0.5114(4)
C27_2 C 0.5137(2) 0.0771(4) 0.4611(4)
C28_3 C 0.500000 0.000000 0.5098(7)
H12_3 H 0.500001 -0.000002 0.572143
C29_2 C 0.5122(2) 0.0800(4) 0.3652(4)
H13_2 H 0.519424 0.136212 0.337228
C30_3 C 0.500000 0.000000 0.30820(19)
C31_3 C 0.500000 -0.000000 0.21453(18)
C32_2 C 0.5263(4) 0.0639(7) 0.1613(6)
H14_2 H 0.544856 0.108954 0.189052
C33_2 C 0.5247(3) 0.0596(6) 0.0682(6)
H15_2 H 0.542741 0.102682 0.036443
C34_3 C 0.500000 -0.000000 0.0220(6)
O1_2 O 0.61275(13) 0.3649(3) 0.4096(3)
O2_2 O 0.61669(17) 0.1141(5) 0.8527(4)
O3_2 O 0.62320(14) 0.3133(3) 0.5501(3)
O4_2 O 0.62708(16) 0.1877(3) 0.6871(3)
O9_2 O 0.52534(14) 0.4425(3) 0.3813(3)
O12_2 O 0.54525(17) 0.1492(3) 0.5914(3)
O13_2 O 0.52831(15) 0.2397(3) 0.4719(3)
C36_2 C 0.4703(3) 0.5558(5) 0.1931(5)
H20_2 H 0.451467 0.597738 0.224297
C37_2 C 0.4663(3) 0.5538(5) 0.0955(5)
H21_2 H 0.442450 0.586675 0.066617
O15_2 O 0.47466(14) 0.5575(3) 0.3813(3)
O39 O 0.54489(15) 0.3540(3) 0.6691(2)
O41 O 0.54072(16) 0.2685(3) 0.7933(3)
O42 O 0.52603(17) 0.0581(3) 0.8776(3)
C21_5 C 0.500000 0.500000 0.9495(6)
C22_2 C 0.4835(2) 0.5755(4) 0.8986(4)
H10_2 H 0.472806 0.628476 0.928292
C23_2 C 0.4825(2) 0.5742(4) 0.8076(4)
C24_2 C 0.4645(2) 0.6562(4) 0.7523(4)
C25_5 C 0.500000 0.500000 0.7586(6)
H11_5 H 0.500001 0.500001 0.69623
C35_3 C 0.500000 -0.000000 0.9178(6)
O10_2 O 0.45511(15) 0.6460(3) 0.6691(2)
O11_2 O 0.45928(16) 0.7315(3) 0.7933(3)
C38_2 C 0.5165(2) 0.4245(4) 0.8986(4)
H22_2 H 0.527194 0.371524 0.928292
C39_2 C 0.5175(2) 0.4258(4) 0.8076(4)
C40_2 C 0.5355(2) 0.3438(4) 0.7523(4)
C28_4 C 0.500000 1.000000 0.5098(7)
H12_4 H 0.500001 0.999998 0.572143
C30_4 C 0.500000 1.000000 0.30820(19)
C31_4 C 0.500000 1.000000 0.21453(18)
C34_4 C 0.500000 1.000000 0.0220(6)
C41_2 C 0.46906(19) 0.8382(3) 0.5114(4)
C42_2 C 0.4863(2) 0.9229(4) 0.4611(4)
C43_2 C 0.4878(2) 0.9200(4) 0.3652(4)
H23_2 H 0.480576 0.863788 0.337228
C44_2 C 0.4737(4) 0.9361(7) 0.1613(6)
H24_2 H 0.455144 0.891046 0.189052
C45_2 C 0.4753(3) 0.9404(6) 0.0682(6)
H25_2 H 0.457259 0.897318 0.036443
O18_2 O 0.45475(17) 0.8508(3) 0.5914(3)
O19_2 O 0.47169(15) 0.7603(3) 0.4719(3)
C46_2 C 0.3106(2) 0.6885(4) 0.4472(5)
C47_2 C 0.2909(2) 0.6627(5) 0.3639(4)
H26_2 H 0.309550 0.638023 0.318485
C48_2 C 0.2449(3) 0.6750(5) 0.3528(5)
H27_2 H 0.230947 0.650889 0.301367
C49_2 C 0.2160(2) 0.7227(5) 0.4148(5)
C50_2 C 0.2364(2) 0.7490(5) 0.4969(5)
H28_2 H 0.216743 0.776211 0.539310
C51_2 C 0.2833(2) 0.7376(5) 0.5196(5)
H29_2 H 0.296497 0.757852 0.573242
C52_2 C 0.1649(2) 0.7335(4) 0.3995(5)
C53_2 C 0.1400(2) 0.6627(4) 0.3618(5)
H30_2 H 0.154585 0.607159 0.345498
C54_2 C 0.09043(19) 0.6767(4) 0.3480(5)
C55_2 C 0.0697(2) 0.7572(4) 0.3713(4)
H31_2 H 0.037808 0.766099 0.359549
C56_2 C 0.09540(19) 0.8272(4) 0.4128(5)
C57_2 C 0.1430(2) 0.8171(4) 0.4264(5)
H32_2 H 0.160527 0.864553 0.452806
C58_2 C 0.36022(19) 0.6693(4) 0.4716(4)
C59_2 C 0.0623(2) 0.5989(4) 0.3082(5)
C60_2 C 0.0730(2) 0.9165(4) 0.4411(5)
O21_2 O 0.38725(13) 0.6351(3) 0.4096(3)
O22_2 O 0.38331(17) 0.8859(5) 0.8527(4)
O23_2 O 0.37680(14) 0.6867(3) 0.5501(3)
O24_2 O 0.37292(16) 0.8123(3) 0.6871(3)
O43 O 0.47397(17) 0.9419(3) 0.8776(3)
C35_4 C 0.500000 1.000000 0.9178(6)
loop_
_geom_bond_atom_site_label_1
_geom_bond_atom_site_label_2
_geom_bond_site_symmetry_1
_geom_bond_site_symmetry_2
C22 C21 1_555 1_555
H10 C22 1_555 1_555
C23 C22 1_555 1_555
C24 C23 1_555 1_555
C25 C23 1_555 1_555
H11 C25 1_555 1_555
O10 C24 1_555 1_555
O11 C24 1_555 1_555
Gd7 O10 1_555 1_555
Gd14 O11 1_555 1_555
C16 C17 1_555 1_555
C36 C17 1_555 1_555
H20 C36 1_555 1_555
C37 C20 1_555 1_555
H21 C37 1_555 1_555
O15 C16 1_555 1_555
Gd7 O15 1_555 1_555
C36 C37 1_555 1_555
H11_2 C25_2 1_555 1_555
O20 C35 1_555 1_555
Gd14 O20 1_555 1_555
C16_2 C17_2 1_555 1_555
C28 H12 1_555 1_555
C31 C30 1_555 1_555
C41 C42 1_555 1_555
C42 C28 1_555 1_555
C43 C30 1_555 1_555
H23 C43 1_555 1_555
C44 C31 1_555 1_555
H24 C44 1_555 1_555
C45 C34 1_555 1_555
H25 C45 1_555 1_555
O18 C41 1_555 1_555
O19 C41 1_555 1_555
Gd7 O19 1_555 1_555
Gd14 O18 1_555 1_555
C46 C47 1_555 1_555
C47 H26 1_555 1_555
C48 C47 1_555 1_555
H27 C48 1_555 1_555
C49 C48 1_555 1_555
C50 C49 1_555 1_555
H28 C50 1_555 1_555
C51 C46 1_555 1_555
H29 C51 1_555 1_555
C52 C49 1_555 1_555
C53 C52 1_555 1_555
H30 C53 1_555 1_555
C54 C53 1_555 1_555
C55 C54 1_555 1_555
H31 C55 1_555 1_555
C56 C55 1_555 1_555
C57 C52 1_555 1_555
H32 C57 1_555 1_555
C58 C46 1_555 1_555
C59 C54 1_555 1_555
C60 C56 1_555 1_555
O21 Gd7 1_555 1_555
O22 Gd14 1_555 1_555
O23 Gd7 1_555 1_555
O24 Gd14 1_555 1_555
O25 C60 1_555 1_555
O26 C60 1_555 1_555
O27 C59 1_555 1_555
O28 C59 1_555 1_555
Gd9 O25 1_555 1_555
Gd11 O26 1_555 1_555
Gd16 O27 1_555 1_555
O36 Gd14 1_555 1_555
C42 C43 1_555 1_555
C44 C45 1_555 1_555
C50 C51 1_555 1_555
C56 C57 1_555 1_555
C58 O21 1_555 1_555
C58 O23 1_555 1_555
H11_3 C25_3 1_555 1_555
C16_3 C17_3 1_555 1_555
H11_4 C25_4 1_555 1_555
O14 C35_2 1_555 1_555
C38 C21_4 1_555 1_555
H22 C38 1_555 1_555
C39 C25_4 1_555 1_555
C40 C39 1_555 1_555
O16 C40 1_555 1_555
O17 C40 1_555 1_555
Gd5 O16 1_555 1_555
Gd12 O14 1_555 1_555
C38 C39 1_555 1_555
O17 Gd12 1_555 1_555
Gd5 O1 1_555 1_555
Gd12 O2 1_555 1_555
C1 C2 1_555 1_555
C2 H1 1_555 1_555
C3 C2 1_555 1_555
H2 C3 1_555 1_555
C4 C3 1_555 1_555
C5 C4 1_555 1_555
H3 C5 1_555 1_555
C6 C1 1_555 1_555
H4 C6 1_555 1_555
C7 C4 1_555 1_555
C8 C7 1_555 1_555
H5 C8 1_555 1_555
C9 C8 1_555 1_555
C10 C9 1_555 1_555
H6 C10 1_555 1_555
C11 C10 1_555 1_555
C12 C7 1_555 1_555
H7 C12 1_555 1_555
C13 C1 1_555 1_555
C14 C9 1_555 1_555
C15 C11 1_555 1_555
C16_4 C17_4 1_555 1_555
C17_4 C18 1_555 1_555
C18 H8 1_555 1_555
C19 C18 1_555 1_555
H9 C19 1_555 1_555
C20_4 C19 1_555 1_555
C26 C27 1_555 1_555
C27 C28_2 1_555 1_555
C28_2 H12_2 1_555 1_555
C29 C27 1_555 1_555
H13 C29 1_555 1_555
C30_2 C29 1_555 1_555
C31_2 C30_2 1_555 1_555
C32 C31_2 1_555 1_555
H14 C32 1_555 1_555
C33 C32 1_555 1_555
H15 C33 1_555 1_555
C34_2 C33 1_555 1_555
O1 C13 1_555 1_555
O3 Gd5 1_555 1_555
O4 Gd12 1_555 1_555
O5 C15 1_555 1_555
O6 C15 1_555 1_555
O7 C14 1_555 1_555
O8 C14 1_555 1_555
O9 Gd5 1_555 1_555
O12 Gd12 1_555 1_555
O13 Gd5 1_555 1_555
Gd9 O6 1_555 1_555
Gd11 O5 1_555 1_555
Gd18 O7 1_555 1_555
O35 Gd12 1_555 1_555
C5 C6 1_555 1_555
C11 C12 1_555 1_555
C13 O3 1_555 1_555
C16_4 O9 1_555 1_555
C26 O12 1_555 1_555
C26 O13 1_555 1_555
Gd9 O1_2 1_555 1_555
Gd16 O2_2 1_555 1_555
C1_2 C2_2 1_555 1_555
C2_2 H1_2 1_555 1_555
C3_2 C2_2 1_555 1_555
H2_2 C3_2 1_555 1_555
C4_2 C3_2 1_555 1_555
C5_2 C4_2 1_555 1_555
H3_2 C5_2 1_555 1_555
C6_2 C1_2 1_555 1_555
H4_2 C6_2 1_555 1_555
C7_2 C4_2 1_555 1_555
C8_2 C7_2 1_555 1_555
H5_2 C8_2 1_555 1_555
C9_2 C8_2 1_555 1_555
C10_2 C9_2 1_555 1_555
H6_2 C10_2 1_555 1_555
C11_2 C10_2 1_555 1_555
C12_2 C7_2 1_555 1_555
H7_2 C12_2 1_555 1_555
C13_2 C1_2 1_555 1_555
C14_2 C9_2 1_555 1_555
C15_2 C11_2 1_555 1_555
C16_5 C17_5 1_555 1_555
C17_5 C18_2 1_555 1_555
C18_2 H8_2 1_555 1_555
C19_2 C18_2 1_555 1_555
H9_2 C19_2 1_555 1_555
C20_5 C19_2 1_555 1_555
C26_2 C27_2 1_555 1_555
C27_2 C28_3 1_555 1_555
C28_3 H12_3 1_555 1_555
C29_2 C27_2 1_555 1_555
H13_2 C29_2 1_555 1_555
C30_3 C29_2 1_555 1_555
C31_3 C30_3 1_555 1_555
C32_2 C31_3 1_555 1_555
H14_2 C32_2 1_555 1_555
C33_2 C32_2 1_555 1_555
H15_2 C33_2 1_555 1_555
C34_3 C33_2 1_555 1_555
O1_2 C13_2 1_555 1_555
O3_2 Gd9 1_555 1_555
O4_2 Gd16 1_555 1_555
O29 C15_2 1_555 1_555
O31 C15_2 1_555 1_555
O33 C14_2 1_555 1_555
O35 C14_2 1_555 1_555
O9_2 Gd9 1_555 1_555
O12_2 Gd16 1_555 1_555
O13_2 Gd9 1_555 1_555
C36_2 C17_5 1_555 1_555
H20_2 C36_2 1_555 1_555
C37_2 C20_5 1_555 1_555
H21_2 C37_2 1_555 1_555
O15_2 C16_5 1_555 1_555
Gd11 O15_2 1_555 1_555
O39 Gd9 1_555 1_555
O41 Gd16 1_555 1_555
O42 Gd16 1_555 1_555
C5_2 C6_2 1_555 1_555
C11_2 C12_2 1_555 1_555
C13_2 O3_2 1_555 1_555
C16_5 O9_2 1_555 1_555
C26_2 O12_2 1_555 1_555
C26_2 O13_2 1_555 1_555
C36_2 C37_2 1_555 1_555
C22_2 C21_5 1_555 1_555
H10_2 C22_2 1_555 1_555
C23_2 C22_2 1_555 1_555
C24_2 C23_2 1_555 1_555
C25_5 C23_2 1_555 1_555
H11_5 C25_5 1_555 1_555
O10_2 C24_2 1_555 1_555
O11_2 C24_2 1_555 1_555
O42 C35_3 1_555 1_555
C38_2 C21_5 1_555 1_555
H22_2 C38_2 1_555 1_555
C39_2 C25_5 1_555 1_555
C40_2 C39_2 1_555 1_555
O39 C40_2 1_555 1_555
O41 C40_2 1_555 1_555
Gd11 O10_2 1_555 1_555
Gd18 O11_2 1_555 1_555
C38_2 C39_2 1_555 1_555
C28_4 H12_4 1_555 1_555
C31_4 C30_4 1_555 1_555
C41_2 C42_2 1_555 1_555
C42_2 C28_4 1_555 1_555
C43_2 C30_4 1_555 1_555
H23_2 C43_2 1_555 1_555
C44_2 C31_4 1_555 1_555
H24_2 C44_2 1_555 1_555
C45_2 C34_4 1_555 1_555
H25_2 C45_2 1_555 1_555
O18_2 C41_2 1_555 1_555
O19_2 C41_2 1_555 1_555
Gd11 O19_2 1_555 1_555
Gd18 O18_2 1_555 1_555
C46_2 C47_2 1_555 1_555
C47_2 H26_2 1_555 1_555
C48_2 C47_2 1_555 1_555
H27_2 C48_2 1_555 1_555
C49_2 C48_2 1_555 1_555
C50_2 C49_2 1_555 1_555
H28_2 C50_2 1_555 1_555
C51_2 C46_2 1_555 1_555
H29_2 C51_2 1_555 1_555
C52_2 C49_2 1_555 1_555
C53_2 C52_2 1_555 1_555
H30_2 C53_2 1_555 1_555
C54_2 C53_2 1_555 1_555
C55_2 C54_2 1_555 1_555
H31_2 C55_2 1_555 1_555
C56_2 C55_2 1_555 1_555
C57_2 C52_2 1_555 1_555
H32_2 C57_2 1_555 1_555
C58_2 C46_2 1_555 1_555
C59_2 C54_2 1_555 1_555
C60_2 C56_2 1_555 1_555
O21_2 Gd11 1_555 1_555
O22_2 Gd18 1_555 1_555
O23_2 Gd11 1_555 1_555
O24_2 Gd18 1_555 1_555
O30 C60_2 1_555 1_555
O32 C60_2 1_555 1_555
O34 C59_2 1_555 1_555
O36 C59_2 1_555 1_555
O43 Gd18 1_555 1_555
C42_2 C43_2 1_555 1_555
C44_2 C45_2 1_555 1_555
C50_2 C51_2 1_555 1_555
C56_2 C57_2 1_555 1_555
C58_2 O21_2 1_555 1_555
C58_2 O23_2 1_555 1_555
O43 C35_4 1_555 1_555

#END
