
###############################################################################
#
# This file contains modified crystal structure data generated from the
# MOF subset of the Cambridge Structural Database (CSD) v542 
# hosted by the Cambridge Crystallographic Data Centre (CCDC).
#
# This work is licensed under the Creative Commons
# Attribution-NonCommercial-ShareAlike 4.0 International License.
# To view a copy of this license, visit
# http://creativecommons.org/licenses/by-nc-sa/4.0/
# or send a letter to
# Creative Commons, PO Box 1866, Mountain View, CA 94042, USA.
#
# CIF created using the CSD Python API on 22 February 2021
# The structure has been converted into the P1 space group
# The structure has a 3D framework
# The original CSD entry NEDCAD is in the monoclinic crystal system
# The framework has been calculated to contain at least 10.0% void space
# The void calculation uses a probe of radius 1.32A, grid spacing 0.4
#
###############################################################################

data_NEDCAD
_chemical_formula_moiety         '(C48 H48 Mg18 O72)n'
_symmetry_cell_setting           triclinic
_symmetry_space_group_name_H-M   'P 1'
_symmetry_Int_Tables_number      1
_space_group_name_Hall           'P 1'
loop_
_symmetry_equiv_pos_site_id
_symmetry_equiv_pos_as_xyz
1 x,y,z
_cell_length_a                   11.496(2)
_cell_length_b                   11.496(2)
_cell_length_c                   16.259(5)
_cell_angle_alpha                90
_cell_angle_beta                 90.551(3)
_cell_angle_gamma                90
_cell_volume                     2148.66
loop_
_atom_site_label
_atom_site_type_symbol
_atom_site_fract_x
_atom_site_fract_y
_atom_site_fract_z
Mg1 Mg -0.0000 0.00236(15) 0.2500
O1 O 0.0815(2) 0.0023(2) 0.36282(16)
C9 C 0.1842(3) 0.1921(4) 0.2335(2)
C10 C 0.2318(3) 0.2368(3) 0.3113(2)
C11 C 0.3138(3) 0.3143(3) 0.2646(2)
C12 C 0.2627(4) 0.2680(3) 0.1878(2)
O13 O 0.1102(2) 0.1228(3) 0.19984(17)
O14 O 0.1979(2) 0.2058(2) 0.38171(16)
O15 O 0.3846(2) 0.3844(2) 0.30016(17)
O16 O 0.2927(2) 0.3050(2) 0.11822(15)
Mg5 Mg 0.5000 0.50236(15) 0.2500
Mg6 Mg 0.2500 0.2500 0.0000
Mg9 Mg 0.2500 0.2500 0.5000
Mg6_2 Mg 0.2500 0.2500 1.0000
O21 O 0.1154(2) 0.8844(2) 0.19984(17)
C1 C 0.8158(3) 0.1921(4) 0.2665(2)
C2 C 0.7682(3) 0.2368(3) 0.1887(2)
C3 C 0.6862(3) 0.3143(3) 0.2354(2)
C4 C 0.7373(4) 0.2680(3) 0.3122(2)
C5 C 0.5463(3) 0.0765(4) 0.5014(2)
Mg1_2 Mg 1.0000 0.00236(15) 0.2500
Mg2 Mg 0.7500 0.2500 0.5000
O2 O 0.8898(2) 0.1228(3) 0.30016(17)
O3 O 0.8021(2) 0.2058(2) 0.11829(16)
O4 O 0.6154(2) 0.3844(2) 0.19984(17)
O5 O 0.7073(2) 0.3050(2) 0.38178(15)
O6 O 0.8250(3) 0.0945(3) 0.46926(18)
O7 O 0.5835(2) 0.1840(2) 0.50479(14)
C8 C 0.4203(3) 0.0444(4) 0.5001(2)
O11 O 0.3188(2) 0.0826(2) 0.50082(16)
O12 O 0.9185(2) 0.0023(2) 0.13718(16)
O17 O 0.6750(3) 0.4055(3) 0.53074(18)
Mg10 Mg 0.7500 0.2500 0.0000
O23 O 0.7927(2) 0.1950(2) 0.61822(15)
O24 O 0.9165(2) 0.3160(2) 0.49521(14)
Mg10_2 Mg 0.7500 0.2500 1.0000
C6 C 0.5797(3) 0.9556(4) 0.4999(2)
Mg3 Mg 0.7500 0.7500 0.5000
O8 O 0.6812(2) 0.9174(2) 0.49918(16)
O9 O 0.5939(2) 0.6827(3) 0.52911(15)
C7 C 0.4537(3) 0.9235(4) 0.4986(2)
O10 O 0.4165(2) 0.8160(2) 0.49521(14)
O18 O 0.9061(2) 0.8173(3) 0.47089(15)
Mg7 Mg 0.2500 0.7500 0.5000
O19 O 0.6979(2) 0.7058(2) 0.38171(16)
O20 O 0.8021(2) 0.7942(2) 0.61829(16)
O22 O 0.8846(2) 0.8844(2) 0.30016(17)
O25 O 0.8188(2) 0.5826(2) 0.50082(16)
O6_2 O 0.1750(3) 0.0945(3) 0.03074(18)
O24_2 O 0.0835(2) 0.3160(2) 0.00479(14)
C5_2 C 0.4537(3) 0.0765(4) 0.9986(2)
O7_2 O 0.4165(2) 0.1840(2) 0.99521(14)
C8_2 C 0.5797(3) 0.0444(4) 0.9999(2)
O11_2 O 0.6812(2) 0.0826(2) 0.99918(16)
O17_2 O 0.3250(3) 0.4055(3) 0.96926(18)
O23_2 O 0.2073(2) 0.1950(2) 0.88178(15)
C6_2 C 0.4203(3) 0.9556(4) 0.0001(2)
Mg3_2 Mg 0.2500 0.7500 0.0000
O8_2 O 0.3188(2) 0.9174(2) 0.00082(16)
C7_2 C 0.5463(3) 0.9235(4) 0.0014(2)
O10_2 O 0.5835(2) 0.8160(2) 0.00479(14)
O18_2 O 0.0939(2) 0.8173(3) 0.02911(15)
Mg7_2 Mg 0.7500 0.7500 0.0000
O19_2 O 0.3021(2) 0.7058(2) 0.11829(16)
Mg3_3 Mg 0.2500 0.7500 1.0000
O9_2 O 0.4061(2) 0.6827(3) 0.97089(15)
Mg7_3 Mg 0.7500 0.7500 1.0000
O20_2 O 0.1979(2) 0.7942(2) 0.88171(16)
O25_2 O 0.1812(2) 0.5826(2) 0.99918(16)
C1_2 C 0.3158(3) 0.6921(4) 0.2665(2)
C2_2 C 0.2682(3) 0.7368(3) 0.1887(2)
C3_2 C 0.1862(3) 0.8143(3) 0.2354(2)
C4_2 C 0.2373(4) 0.7680(3) 0.3122(2)
C5_3 C 0.0463(3) 0.5765(4) 0.5014(2)
C6_3 C 0.0797(3) 0.4556(4) 0.4999(2)
O1_2 O 0.5815(2) 0.5023(2) 0.36282(16)
O2_2 O 0.3898(2) 0.6228(3) 0.30016(17)
O5_2 O 0.2073(2) 0.8050(2) 0.38178(15)
O6_3 O 0.3250(3) 0.5945(3) 0.46926(18)
O7_3 O 0.0835(2) 0.6840(2) 0.50479(14)
O8_3 O 0.1812(2) 0.4174(2) 0.49918(16)
O9_3 O 0.0939(2) 0.1827(3) 0.52911(15)
C9_2 C 0.6842(3) 0.6921(4) 0.2335(2)
C10_2 C 0.7318(3) 0.7368(3) 0.3113(2)
C11_2 C 0.8138(3) 0.8143(3) 0.2646(2)
C12_2 C 0.7627(4) 0.7680(3) 0.1878(2)
O12_2 O 0.4185(2) 0.5023(2) 0.13718(16)
O13_2 O 0.6102(2) 0.6228(3) 0.19984(17)
O16_2 O 0.7927(2) 0.8050(2) 0.11822(15)
O17_3 O 0.1750(3) 0.9055(3) 0.53074(18)
O18_3 O 0.4061(2) 0.3173(3) 0.47089(15)
O20_3 O 0.3021(2) 0.2942(2) 0.61829(16)
O23_3 O 0.2927(2) 0.6950(2) 0.61822(15)
C7_3 C 0.9537(3) 0.4235(4) 0.4986(2)
C8_3 C 0.9203(3) 0.5444(4) 0.5001(2)
C7_4 C 0.0463(3) 0.4235(4) 0.0014(2)
C8_4 C 0.0797(3) 0.5444(4) 0.9999(2)
C6_4 C 0.9203(3) 0.4556(4) 0.0001(2)
O6_4 O 0.6750(3) 0.5945(3) 0.03074(18)
O8_4 O 0.8188(2) 0.4174(2) 0.00082(16)
O18_4 O 0.5939(2) 0.3173(3) 0.02911(15)
C5_4 C 0.9537(3) 0.5765(4) 0.9986(2)
O7_4 O 0.9165(2) 0.6840(2) 0.99521(14)
O9_4 O 0.9061(2) 0.1827(3) 0.97089(15)
O17_4 O 0.8250(3) 0.9055(3) 0.96926(18)
O20_4 O 0.6979(2) 0.2942(2) 0.88171(16)
O23_4 O 0.7073(2) 0.6950(2) 0.88178(15)
O22_2 O 0.1154(2) 0.1156(2) 0.69984(17)
C1_3 C 0.1842(3) 0.8079(4) 0.7335(2)
C2_3 C 0.2318(3) 0.7632(3) 0.8113(2)
C3_3 C 0.3138(3) 0.6857(3) 0.7646(2)
C4_3 C 0.2627(4) 0.7320(3) 0.6878(2)
Mg1_3 Mg 0.0000 0.99764(15) 0.7500
O2_3 O 0.1102(2) 0.8772(3) 0.69984(17)
O4_2 O 0.3846(2) 0.6156(2) 0.80016(17)
O12_3 O 0.0815(2) 0.9977(2) 0.86282(16)
Mg4 Mg 0.5000 0.49764(15) 0.7500
O21_2 O 0.8846(2) 0.1156(2) 0.80016(17)
Mg1_4 Mg 1.0000 0.99764(15) 0.7500
O1_3 O 0.9185(2) 0.9977(2) 0.63718(16)
C9_3 C 0.8158(3) 0.8079(4) 0.7665(2)
C10_3 C 0.7682(3) 0.7632(3) 0.6887(2)
C11_3 C 0.6862(3) 0.6857(3) 0.7354(2)
C12_3 C 0.7373(4) 0.7320(3) 0.8122(2)
O13_3 O 0.8898(2) 0.8772(3) 0.80016(17)
O15_2 O 0.6154(2) 0.6156(2) 0.69984(17)
C1_4 C 0.6842(3) 0.3079(4) 0.7335(2)
C2_4 C 0.7318(3) 0.2632(3) 0.8113(2)
C3_4 C 0.8138(3) 0.1857(3) 0.7646(2)
C4_4 C 0.7627(4) 0.2320(3) 0.6878(2)
O1_4 O 0.4185(2) 0.4977(2) 0.63718(16)
O2_4 O 0.6102(2) 0.3772(3) 0.69984(17)
C9_4 C 0.3158(3) 0.3079(4) 0.7665(2)
C10_4 C 0.2682(3) 0.2632(3) 0.6887(2)
C11_4 C 0.1862(3) 0.1857(3) 0.7354(2)
C12_4 C 0.2373(4) 0.2320(3) 0.8122(2)
O12_4 O 0.5815(2) 0.4977(2) 0.86282(16)
O13_4 O 0.3898(2) 0.3772(3) 0.80016(17)
loop_
_geom_bond_atom_site_label_1
_geom_bond_atom_site_label_2
_geom_bond_site_symmetry_1
_geom_bond_site_symmetry_2
Mg1 O1 1_555 1_555
C9 C10 1_555 1_555
C10 C11 1_555 1_555
C11 C12 1_555 1_555
C12 C9 1_555 1_555
O13 Mg1 1_555 1_555
O14 C10 1_555 1_555
O15 C11 1_555 1_555
O16 C12 1_555 1_555
Mg5 O15 1_555 1_555
Mg6 O16 1_555 1_555
Mg9 O14 1_555 1_555
C9 O13 1_555 1_555
C1 C2 1_555 1_555
C2 C3 1_555 1_555
C3 C4 1_555 1_555
C4 C1 1_555 1_555
Mg2 O5 1_555 1_555
O2 C1 1_555 1_555
O3 C2 1_555 1_555
O4 C3 1_555 1_555
O5 C4 1_555 1_555
O6 Mg2 1_555 1_555
O7 C5 1_555 1_555
C8 C5 1_555 1_555
O11 C8 1_555 1_555
O12 Mg1_2 1_555 1_555
O17 Mg2 1_555 1_555
Mg5 O4 1_555 1_555
Mg9 O11 1_555 1_555
Mg10 O3 1_555 1_555
O23 Mg2 1_555 1_555
O24 Mg2 1_555 1_555
Mg1_2 O2 1_555 1_555
Mg2 O7 1_555 1_555
C6 O8 1_555 1_555
Mg3 O8 1_555 1_555
O9 Mg3 1_555 1_555
C7 C6 1_555 1_555
O10 C7 1_555 1_555
O18 Mg3 1_555 1_555
Mg7 O10 1_555 1_555
O19 Mg3 1_555 1_555
O20 Mg3 1_555 1_555
O25 Mg3 1_555 1_555
O6_2 Mg6 1_555 1_555
O24_2 Mg6 1_555 1_555
O7_2 C5_2 1_555 1_555
C8_2 C5_2 1_555 1_555
O11_2 C8_2 1_555 1_555
O17_2 Mg6_2 1_555 1_555
Mg10_2 O11_2 1_555 1_555
O23_2 Mg6_2 1_555 1_555
Mg6_2 O7_2 1_555 1_555
C6_2 O8_2 1_555 1_555
Mg3_2 O8_2 1_555 1_555
C7_2 C6_2 1_555 1_555
O10_2 C7_2 1_555 1_555
O18_2 Mg3_2 1_555 1_555
Mg7_2 O10_2 1_555 1_555
O19_2 Mg3_2 1_555 1_555
O9_2 Mg3_3 1_555 1_555
O20_2 Mg3_3 1_555 1_555
O25_2 Mg3_3 1_555 1_555
C1_2 C2_2 1_555 1_555
C2_2 C3_2 1_555 1_555
C3_2 C4_2 1_555 1_555
C4_2 C1_2 1_555 1_555
C5_3 C6_3 1_555 1_555
C6_3 O8_3 1_555 1_555
Mg5 O1_2 1_555 1_555
Mg7 O5_2 1_555 1_555
Mg9 O8_3 1_555 1_555
O2_2 C1_2 1_555 1_555
O19_2 C2_2 1_555 1_555
O21 C3_2 1_555 1_555
O5_2 C4_2 1_555 1_555
O6_3 Mg7 1_555 1_555
O7_3 C5_3 1_555 1_555
O9_3 Mg9 1_555 1_555
C9_2 C10_2 1_555 1_555
C10_2 C11_2 1_555 1_555
C11_2 C12_2 1_555 1_555
C12_2 C9_2 1_555 1_555
O12_2 Mg5 1_555 1_555
O13_2 Mg5 1_555 1_555
O19 C10_2 1_555 1_555
O22 C11_2 1_555 1_555
O16_2 C12_2 1_555 1_555
O17_3 Mg7 1_555 1_555
O18_3 Mg9 1_555 1_555
Mg7_2 O16_2 1_555 1_555
O20_3 Mg9 1_555 1_555
O23_3 Mg7 1_555 1_555
Mg5 O2_2 1_555 1_555
Mg7 O7_3 1_555 1_555
C9_2 O13_2 1_555 1_555
O24 C7_3 1_555 1_555
O25 C8_3 1_555 1_555
C7_3 C8_3 1_555 1_555
O24_2 C7_4 1_555 1_555
O25_2 C8_4 1_555 1_555
C6_4 O8_4 1_555 1_555
Mg10 O8_4 1_555 1_555
O6_4 Mg7_2 1_555 1_555
O18_4 Mg10 1_555 1_555
O7_4 C5_4 1_555 1_555
O9_4 Mg10_2 1_555 1_555
O17_4 Mg7_3 1_555 1_555
O20_4 Mg10_2 1_555 1_555
O23_4 Mg7_3 1_555 1_555
Mg7_3 O7_4 1_555 1_555
C1_3 C2_3 1_555 1_555
C2_3 C3_3 1_555 1_555
C3_3 C4_3 1_555 1_555
C4_3 C1_3 1_555 1_555
O2_3 C1_3 1_555 1_555
O20_2 C2_3 1_555 1_555
O4_2 C3_3 1_555 1_555
O23_3 C4_3 1_555 1_555
O12_3 Mg1_3 1_555 1_555
Mg4 O4_2 1_555 1_555
Mg1_3 O2_3 1_555 1_555
Mg1_4 O1_3 1_555 1_555
C9_3 C10_3 1_555 1_555
C10_3 C11_3 1_555 1_555
C11_3 C12_3 1_555 1_555
C12_3 C9_3 1_555 1_555
O13_3 Mg1_4 1_555 1_555
O20 C10_3 1_555 1_555
O15_2 C11_3 1_555 1_555
O23_4 C12_3 1_555 1_555
Mg4 O15_2 1_555 1_555
C9_3 O13_3 1_555 1_555
C1_4 C2_4 1_555 1_555
C2_4 C3_4 1_555 1_555
C3_4 C4_4 1_555 1_555
C4_4 C1_4 1_555 1_555
Mg4 O1_4 1_555 1_555
O2_4 C1_4 1_555 1_555
O20_4 C2_4 1_555 1_555
O21_2 C3_4 1_555 1_555
O23 C4_4 1_555 1_555
C9_4 C10_4 1_555 1_555
C10_4 C11_4 1_555 1_555
C11_4 C12_4 1_555 1_555
C12_4 C9_4 1_555 1_555
O12_4 Mg4 1_555 1_555
O13_4 Mg4 1_555 1_555
O20_3 C10_4 1_555 1_555
O22_2 C11_4 1_555 1_555
O23_2 C12_4 1_555 1_555
Mg4 O2_4 1_555 1_555
C9_4 O13_4 1_555 1_555

#END
