
###############################################################################
#
# This file contains modified crystal structure data generated from the
# MOF subset of the Cambridge Structural Database (CSD) v542 
# hosted by the Cambridge Crystallographic Data Centre (CCDC).
#
# This work is licensed under the Creative Commons
# Attribution-NonCommercial-ShareAlike 4.0 International License.
# To view a copy of this license, visit
# http://creativecommons.org/licenses/by-nc-sa/4.0/
# or send a letter to
# Creative Commons, PO Box 1866, Mountain View, CA 94042, USA.
#
# CIF created using the CSD Python API on 22 February 2021
# The structure has been converted into the P1 space group
# The structure has a 3D framework
# The original CSD entry NUDSUD is in the triclinic crystal system
# The framework has been calculated to contain at least 10.0% void space
# The void calculation uses a probe of radius 1.32A, grid spacing 0.4
#
###############################################################################

data_NUDSUD
_chemical_formula_moiety         '(C86 H76 Co2 N8 O22)n'
_symmetry_cell_setting           triclinic
_symmetry_space_group_name_H-M   'P 1'
_symmetry_Int_Tables_number      1
_space_group_name_Hall           'P 1'
loop_
_symmetry_equiv_pos_site_id
_symmetry_equiv_pos_as_xyz
1 x,y,z
_cell_length_a                   8.7362(3)
_cell_length_b                   17.0231(10)
_cell_length_c                   17.1060(2)
_cell_angle_alpha                65.349(3)
_cell_angle_beta                 79.625(2)
_cell_angle_gamma                86.759(2)
_cell_volume                     2273.82
loop_
_atom_site_label
_atom_site_type_symbol
_atom_site_fract_x
_atom_site_fract_y
_atom_site_fract_z
H25 H 0.062965 0.236800 0.625640
H26 H 0.062977 0.178370 0.575140
C36 C 0.1384(5) 0.0345(3) 0.8663(3)
H29 H 0.158458 0.043190 0.913703
C37 C 0.0334(5) 0.0870(3) 0.8180(3)
C38 C 0.0001(4) 0.0770(2) 0.7467(2)
C39 C 0.0717(5) 0.0095(3) 0.7312(3)
N4 N 0.2129(3) 0.97201(17) 0.84883(17)
H31 H 0.050180 0.997717 0.685834
C40 C 0.1752(4) 0.9596(2) 0.7828(3)
H32 H 0.221592 0.914415 0.770773
Co5 Co 0.40936(4) 0.90536(2) 0.90890(2)
Co1 Co 0.52925(4) 0.47426(2) 0.37548(2)
O1 O 0.6432(3) 0.50663(14) 0.24424(14)
O2 O 0.5083(3) 0.38545(13) 0.31304(13)
O3 O 0.5611(3) 0.17521(14) 0.16466(14)
O4 O 0.7092(2) 0.21629(14) 0.03591(14)
O6 O 0.3903(2) 0.42085(13) 0.49374(13)
O7 O 0.4047(2) 0.40927(12) 0.62782(13)
O8 O 0.5392(5) 0.1287(2) 0.8497(2)
O9 O 0.5437(3) 0.01027(13) 0.82636(15)
O10 O 0.4189(4) 0.10576(17) 0.52913(18)
H1 H 0.348956 0.000932 0.980337
N1 N 0.3265(3) 0.53586(16) 0.32223(16)
N3 N 0.7147(3) 0.39432(16) 0.43651(16)
C1 C 0.6321(4) 0.4200(2) 0.1649(2)
C2 C 0.6092(3) 0.3387(2) 0.1695(2)
H3 H 0.562400 0.295126 0.221740
C3 C 0.6564(4) 0.3216(2) 0.0954(2)
C4 C 0.7210(5) 0.3872(2) 0.0173(2)
C5 C 0.7441(5) 0.4693(2) 0.0121(2)
C6 C 0.7004(5) 0.4863(2) 0.0858(2)
H5 H 0.716398 0.541196 0.082619
C7 C 0.5904(3) 0.43827(19) 0.2454(2)
C8 C 0.6416(3) 0.2327(2) 0.0996(2)
C9 C 0.4189(3) 0.28041(17) 0.60486(18)
C10 C 0.4529(4) 0.23134(18) 0.68808(19)
H6 H 0.457222 0.257402 0.725824
C11 C 0.4806(3) 0.14273(18) 0.71489(19)
C12 C 0.4688(4) 0.10409(19) 0.6594(2)
H7 H 0.486926 0.045293 0.677140
C13 C 0.4300(4) 0.1525(2) 0.5769(2)
C14 C 0.4067(3) 0.24114(19) 0.54874(19)
H8 H 0.383380 0.273764 0.493382
C15 C 0.4036(3) 0.37747(17) 0.57327(17)
C16 C 0.5236(4) 0.0904(2) 0.8040(2)
C17 C 0.3359(4) 0.6168(2) 0.2591(2)
H9 H 0.431187 0.646179 0.241720
C18 C 0.2150(4) 0.6587(2) 0.2189(2)
H10 H 0.228707 0.715008 0.176051
C19 C 0.0734(4) 0.6171(2) 0.2422(2)
C20 C 0.0641(4) 0.5328(2) 0.3065(2)
C21 C 0.1899(4) 0.4952(2) 0.3447(2)
H12 H 0.179172 0.439069 0.387995
H16 H 0.053465 0.738319 0.087804
C29 C 0.7759(4) 0.4092(2) 0.4955(2)
H21 H 0.754849 0.461369 0.500268
C30 C 0.8682(4) 0.3515(3) 0.5495(2)
H22 H 0.907914 0.365236 0.589296
C31 C 0.9021(4) 0.2732(2) 0.5448(2)
C32 C 0.8437(5) 0.2583(2) 0.4828(3)
H23 H 0.865997 0.207238 0.476051
C33 C 0.7514(4) 0.3192(2) 0.4303(3)
H24 H 0.713080 0.307562 0.388821
C34 C 0.9963(4) 0.2071(3) 0.6065(3)
C35 C 0.8989(4) 0.1394(3) 0.6862(3)
H27 H 0.830124 0.167622 0.717282
H28 H 0.835042 0.107676 0.667780
H30 H 0.984273 0.129653 0.833482
C38_2 C 1.0001(4) 0.0770(2) 0.7467(2)
C41 C 0.3672(6) 0.1393(3) 0.4583(3)
H33 H 0.435615 0.185775 0.416526
H34 H 0.265311 0.161288 0.468190
H35 H 0.361195 0.096396 0.436144
Co3 Co 0.47075(4) 0.52574(2) 0.62452(2)
Co6 Co 0.59064(4) 0.09464(2) 0.09110(2)
O14 O 0.5953(2) 0.59073(12) 0.37218(13)
O12 O 0.4389(3) 0.82479(14) 0.83534(14)
O13 O 0.2908(2) 0.78371(14) 0.96409(14)
N5 N 0.5986(3) 0.83871(16) 0.97360(16)
C27 C 0.8622(4) 0.8277(3) 0.9892(2)
H19 H 0.961999 0.852101 0.968924
C28 C 0.7423(4) 0.8700(2) 0.9474(2)
H20 H 0.763163 0.922441 0.898958
N2 N 0.4014(3) 0.16129(16) 0.02640(16)
C27_2 C 0.1378(4) 0.1723(3) 0.0108(2)
H19_2 H 0.038001 0.147899 0.031076
C28_2 C 0.2577(4) 0.1300(2) 0.0526(2)
H20_2 H 0.236837 0.077559 0.101042
N6 N 0.7871(3) 0.02799(17) 0.15117(17)
O1_2 O 0.3568(3) 0.49337(14) 0.75576(14)
O2_2 O 0.4917(3) 0.61455(13) 0.68696(13)
O6_2 O 0.6097(2) 0.57915(13) 0.50626(13)
O8_2 O 0.4608(5) 0.8713(2) 0.1503(2)
O9_2 O 0.4563(3) 0.98973(13) 0.17364(15)
O10_2 O 0.5811(4) 0.89424(17) 0.47087(18)
H1_2 H 0.651044 0.999068 0.019663
N1_2 N 0.6735(3) 0.46414(16) 0.67777(16)
N3_2 N 0.2853(3) 0.60568(16) 0.56349(16)
C1_2 C 0.3679(4) 0.5800(2) 0.8351(2)
C2_2 C 0.3908(3) 0.6613(2) 0.8305(2)
H3_2 H 0.437600 0.704874 0.778260
C3_2 C 0.3436(4) 0.6784(2) 0.9046(2)
C4_2 C 0.2790(5) 0.6128(2) 0.9827(2)
C5_2 C 0.2559(5) 0.5307(2) 0.9879(2)
C6_2 C 0.2996(5) 0.5137(2) 0.9142(2)
H5_2 H 0.283602 0.458804 0.917381
C7_2 C 0.4096(3) 0.56173(19) 0.7546(2)
C8_2 C 0.3584(3) 0.7673(2) 0.9004(2)
C9_2 C 0.5811(3) 0.71959(17) 0.39514(18)
C10_2 C 0.5471(4) 0.76866(18) 0.31192(19)
H6_2 H 0.542778 0.742598 0.274176
C11_2 C 0.5194(3) 0.85727(18) 0.28511(19)
C12_2 C 0.5312(4) 0.89591(19) 0.3406(2)
H7_2 H 0.513074 0.954707 0.322860
C13_2 C 0.5700(4) 0.8475(2) 0.4231(2)
C14_2 C 0.5933(3) 0.75886(19) 0.45126(19)
H8_2 H 0.616620 0.726236 0.506618
C15_2 C 0.5964(3) 0.62253(17) 0.42673(17)
C16_2 C 0.4764(4) 0.9096(2) 0.1960(2)
C17_2 C 0.6641(4) 0.3832(2) 0.7409(2)
H9_2 H 0.568813 0.353821 0.758280
C18_2 C 0.7850(4) 0.3413(2) 0.7811(2)
H10_2 H 0.771293 0.284992 0.823949
C19_2 C 0.9266(4) 0.3829(2) 0.7578(2)
C20_2 C 0.9359(4) 0.4672(2) 0.6935(2)
C21_2 C 0.8101(4) 0.5048(2) 0.6553(2)
H12_2 H 0.820828 0.560931 0.612005
H16_2 H 0.946535 0.261681 0.912196
C29_2 C 0.2241(4) 0.5908(2) 0.5045(2)
H21_2 H 0.245151 0.538631 0.499732
C30_2 C 0.1318(4) 0.6485(3) 0.4505(2)
H22_2 H 0.092086 0.634764 0.410704
C31_2 C 0.0979(4) 0.7268(2) 0.4552(2)
C32_2 C 0.1563(5) 0.7417(2) 0.5172(3)
H23_2 H 0.134003 0.792762 0.523949
C33_2 C 0.2486(4) 0.6808(2) 0.5697(3)
H24_2 H 0.286920 0.692438 0.611179
C34_2 C 0.0037(4) 0.7929(3) 0.3935(3)
C35_2 C 0.1011(4) 0.8606(3) 0.3138(3)
H27_2 H 0.169876 0.832378 0.282718
H28_2 H 0.164958 0.892324 0.332220
H30_2 H 0.015727 0.870347 0.166518
C38_3 C -0.0001(4) 0.9230(2) 0.2533(2)
C41_2 C 0.6328(6) 0.8607(3) 0.5417(3)
H33_2 H 0.564385 0.814225 0.583474
H34_2 H 0.734689 0.838712 0.531810
H35_2 H 0.638805 0.903604 0.563856
H31_2 H 0.949820 0.002283 0.314166
C40_2 C 0.8248(4) 0.0404(2) 0.2172(3)
H32_2 H 0.778408 0.085585 0.229227
O5 O 0.8163(5) 0.52724(19) 0.93158(19)
H4 H 0.749172 0.376308 0.967755
C42 C 0.8447(7) 0.6027(3) 0.9221(4)
H36 H 0.899505 0.635160 0.864039
H37 H 0.907647 0.600130 0.963695
H38 H 0.748704 0.630473 0.931382
O11 O 0.3385(3) 0.94632(18) 0.01053(17)
H11 H 0.970873 0.501529 0.323801
C22 C 0.9375(4) 0.6599(3) 0.2012(3)
H13 H 0.853842 0.617208 0.221300
H14 H 0.902187 0.703936 0.221970
C23 C 0.9641(5) 0.6994(4) 0.1072(3)
H15 H 0.992915 0.654117 0.087259
C24 C 0.5743(4) 0.7626(2) 0.0439(2)
H17 H 0.473309 0.739738 0.063387
C25 C 0.6880(4) 0.7164(2) 0.0887(2)
H18 H 0.664114 0.663869 0.136698
C26 C 0.8363(4) 0.7486(2) 0.0617(2)
H11_2 H 0.029127 0.498471 0.676199
C22_2 C 0.0625(4) 0.3401(3) 0.7988(3)
H13_2 H 0.146158 0.382792 0.778700
H14_2 H 0.097813 0.296064 0.778030
C23_2 C 0.0359(5) 0.3006(4) 0.8928(3)
H15_2 H 0.007085 0.345883 0.912741
C24_2 C 0.4257(4) 0.2374(2) 0.9561(2)
H17_2 H 0.526691 0.260262 0.936613
C25_2 C 0.3120(4) 0.2836(2) 0.9113(2)
H18_2 H 0.335886 0.336131 0.863302
C26_2 C 0.1637(4) 0.2514(2) 0.9383(2)
O11_2 O 0.6615(3) 0.05368(18) 0.98947(17)
O5_2 O 0.1837(5) 0.47276(19) 0.06842(19)
H4_2 H 0.250828 0.623692 0.032245
C42_2 C 0.1553(7) 0.3973(3) 0.0779(4)
H36_2 H 0.100495 0.364840 0.135961
H37_2 H 0.092353 0.399870 0.036305
H38_2 H 0.251296 0.369527 0.068618
H25_2 H 0.937035 0.763200 0.374360
H26_2 H 0.937023 0.821630 0.424860
C36_2 C 0.8616(5) 0.9655(3) 0.1337(3)
H29_2 H 0.841542 0.956810 0.086297
C37_2 C 0.9666(5) 0.9130(3) 0.1820(3)
C38_4 C 0.9999(4) 0.9230(2) 0.2533(2)
C39_2 C 0.9283(5) 0.9905(3) 0.2688(3)
loop_
_geom_bond_atom_site_label_1
_geom_bond_atom_site_label_2
_geom_bond_site_symmetry_1
_geom_bond_site_symmetry_2
C36 H29 1_555 1_555
C37 C36 1_555 1_555
C39 C38 1_555 1_555
C37 C38 1_555 1_555
C40 N4 1_555 1_555
H32 C40 1_555 1_555
Co5 N4 1_555 1_555
Co1 O1 1_555 1_555
O1 C7 1_555 1_555
O2 Co1 1_555 1_555
O3 C8 1_555 1_555
O4 C8 1_555 1_555
O6 Co1 1_555 1_555
O7 C15 1_555 1_555
O8 C16 1_555 1_555
O9 C16 1_555 1_555
O10 C13 1_555 1_555
N1 Co1 1_555 1_555
N3 Co1 1_555 1_555
C1 C2 1_555 1_555
C2 H3 1_555 1_555
C3 C2 1_555 1_555
C4 C3 1_555 1_555
C5 C4 1_555 1_555
C6 C1 1_555 1_555
H5 C6 1_555 1_555
C7 O2 1_555 1_555
C8 C3 1_555 1_555
C9 C10 1_555 1_555
C10 H6 1_555 1_555
C11 C10 1_555 1_555
C12 C11 1_555 1_555
H7 C12 1_555 1_555
C13 C12 1_555 1_555
C14 C9 1_555 1_555
H8 C14 1_555 1_555
C15 O6 1_555 1_555
C16 C11 1_555 1_555
C17 N1 1_555 1_555
H9 C17 1_555 1_555
C18 C17 1_555 1_555
H10 C18 1_555 1_555
C19 C18 1_555 1_555
C20 C19 1_555 1_555
C21 N1 1_555 1_555
H12 C21 1_555 1_555
C29 N3 1_555 1_555
H21 C29 1_555 1_555
C30 C29 1_555 1_555
H22 C30 1_555 1_555
C31 C30 1_555 1_555
C32 C31 1_555 1_555
H23 C32 1_555 1_555
C33 N3 1_555 1_555
H24 C33 1_555 1_555
C34 C31 1_555 1_555
C35 C34 1_555 1_555
H27 C35 1_555 1_555
H28 C35 1_555 1_555
C38_2 C35 1_555 1_555
C41 O10 1_555 1_555
H33 C41 1_555 1_555
H34 C41 1_555 1_555
H35 C41 1_555 1_555
Co3 O7 1_555 1_555
Co6 O3 1_555 1_555
O14 Co1 1_555 1_555
O4 Co6 1_555 1_555
C1 C7 1_555 1_555
C5 C6 1_555 1_555
C9 C15 1_555 1_555
C13 C14 1_555 1_555
C20 C21 1_555 1_555
C32 C33 1_555 1_555
O12 Co5 1_555 1_555
O13 Co5 1_555 1_555
N5 Co5 1_555 1_555
H19 C27 1_555 1_555
C28 N5 1_555 1_555
H20 C28 1_555 1_555
C27 C28 1_555 1_555
H19_2 C27_2 1_555 1_555
C28_2 N2 1_555 1_555
H20_2 C28_2 1_555 1_555
Co6 N2 1_555 1_555
C27_2 C28_2 1_555 1_555
N6 Co6 1_555 1_555
Co3 O1_2 1_555 1_555
O1_2 C7_2 1_555 1_555
O2_2 Co3 1_555 1_555
O12 C8_2 1_555 1_555
O13 C8_2 1_555 1_555
O6_2 Co3 1_555 1_555
O14 C15_2 1_555 1_555
O8_2 C16_2 1_555 1_555
O9_2 C16_2 1_555 1_555
O10_2 C13_2 1_555 1_555
N1_2 Co3 1_555 1_555
N3_2 Co3 1_555 1_555
C1_2 C2_2 1_555 1_555
C2_2 H3_2 1_555 1_555
C3_2 C2_2 1_555 1_555
C4_2 C3_2 1_555 1_555
C5_2 C4_2 1_555 1_555
C6_2 C1_2 1_555 1_555
H5_2 C6_2 1_555 1_555
C7_2 O2_2 1_555 1_555
C8_2 C3_2 1_555 1_555
C9_2 C10_2 1_555 1_555
C10_2 H6_2 1_555 1_555
C11_2 C10_2 1_555 1_555
C12_2 C11_2 1_555 1_555
H7_2 C12_2 1_555 1_555
C13_2 C12_2 1_555 1_555
C14_2 C9_2 1_555 1_555
H8_2 C14_2 1_555 1_555
C15_2 O6_2 1_555 1_555
C16_2 C11_2 1_555 1_555
C17_2 N1_2 1_555 1_555
H9_2 C17_2 1_555 1_555
C18_2 C17_2 1_555 1_555
H10_2 C18_2 1_555 1_555
C19_2 C18_2 1_555 1_555
C20_2 C19_2 1_555 1_555
C21_2 N1_2 1_555 1_555
H12_2 C21_2 1_555 1_555
C29_2 N3_2 1_555 1_555
H21_2 C29_2 1_555 1_555
C30_2 C29_2 1_555 1_555
H22_2 C30_2 1_555 1_555
C31_2 C30_2 1_555 1_555
C32_2 C31_2 1_555 1_555
H23_2 C32_2 1_555 1_555
C33_2 N3_2 1_555 1_555
H24_2 C33_2 1_555 1_555
C34_2 C31_2 1_555 1_555
C35_2 C34_2 1_555 1_555
H27_2 C35_2 1_555 1_555
H28_2 C35_2 1_555 1_555
C38_3 C35_2 1_555 1_555
C41_2 O10_2 1_555 1_555
H33_2 C41_2 1_555 1_555
H34_2 C41_2 1_555 1_555
H35_2 C41_2 1_555 1_555
C1_2 C7_2 1_555 1_555
C5_2 C6_2 1_555 1_555
C9_2 C15_2 1_555 1_555
C13_2 C14_2 1_555 1_555
C20_2 C21_2 1_555 1_555
C32_2 C33_2 1_555 1_555
C40_2 N6 1_555 1_555
H32_2 C40_2 1_555 1_555
C42 O5 1_555 1_555
H36 C42 1_555 1_555
H37 C42 1_555 1_555
H38 C42 1_555 1_555
H13 C22 1_555 1_555
H14 C22 1_555 1_555
C23 C22 1_555 1_555
H15 C23 1_555 1_555
C24 H17 1_555 1_555
C25 C24 1_555 1_555
H18 C25 1_555 1_555
C26 C23 1_555 1_555
C25 C26 1_555 1_555
H13_2 C22_2 1_555 1_555
H14_2 C22_2 1_555 1_555
C23_2 C22_2 1_555 1_555
H15_2 C23_2 1_555 1_555
C24_2 H17_2 1_555 1_555
C25_2 C24_2 1_555 1_555
H18_2 C25_2 1_555 1_555
C26_2 C23_2 1_555 1_555
C25_2 C26_2 1_555 1_555
C42_2 O5_2 1_555 1_555
H36_2 C42_2 1_555 1_555
H37_2 C42_2 1_555 1_555
H38_2 C42_2 1_555 1_555
C36_2 H29_2 1_555 1_555
C37_2 C36_2 1_555 1_555
C39_2 C38_4 1_555 1_555
C37_2 C38_4 1_555 1_555

#END
