
###############################################################################
#
# This file contains modified crystal structure data generated from the
# MOF subset of the Cambridge Structural Database (CSD) v542 
# hosted by the Cambridge Crystallographic Data Centre (CCDC).
#
# This work is licensed under the Creative Commons
# Attribution-NonCommercial-ShareAlike 4.0 International License.
# To view a copy of this license, visit
# http://creativecommons.org/licenses/by-nc-sa/4.0/
# or send a letter to
# Creative Commons, PO Box 1866, Mountain View, CA 94042, USA.
#
# CIF created using the CSD Python API on 22 February 2021
# The structure has been converted into the P1 space group
# The structure has a 3D framework
# The original CSD entry NUGRIT is in the monoclinic crystal system
# The framework has been calculated to contain at least 10.0% void space
# The void calculation uses a probe of radius 1.32A, grid spacing 0.4
#
###############################################################################

data_NUGRIT
_chemical_formula_moiety         '(C144 H64 N32 O45 Zn6)n'
_symmetry_cell_setting           triclinic
_symmetry_space_group_name_H-M   'P 1'
_symmetry_Int_Tables_number      1
_space_group_name_Hall           'P 1'
loop_
_symmetry_equiv_pos_site_id
_symmetry_equiv_pos_as_xyz
1 x,y,z
_cell_length_a                   21.3692(2)
_cell_length_b                   11.0364(3)
_cell_length_c                   24.22800(10)
_cell_angle_alpha                90
_cell_angle_beta                 122.351(2)
_cell_angle_gamma                90
_cell_volume                     4827.03
loop_
_atom_site_label
_atom_site_type_symbol
_atom_site_fract_x
_atom_site_fract_y
_atom_site_fract_z
O1 O 0.28062(16) 0.7385(2) 0.05422(13)
O3 O 0.52665(17) 0.0970(3) 0.34729(13)
O6 O 0.2857(2) 0.1040(3) 0.05376(16)
C1 C 0.250000 0.6861(4) 0.000000
C2 C 0.5097(2) 0.0115(3) 0.53216(16)
C4 C 0.5248(2) 0.0558(3) 0.44198(17)
C5 C 0.250000 0.5485(5) 0.000000
C8 C 0.250000 0.1559(5) 0.000000
C9 C 0.250000 0.2939(5) 0.000000
C10 C 0.5030(2) 0.0358(4) 0.37378(17)
C11 C 0.5635(2) 0.1015(3) 0.56902(17)
C12 C 0.5779(2) 0.1415(4) 0.47936(18)
H1 H 0.601115 0.185472 0.461361
C13 C 0.5978(2) 0.1641(4) 0.54339(18)
H2 H 0.634788 0.222455 0.569153
C15 C 0.0012(2) 0.0137(5) 0.0568(2)
H4 H 0.002147 0.022935 0.096260
C16 C 0.2907(3) 0.4845(4) 0.0577(2)
H5 H 0.319393 0.526843 0.097861
C17 C 0.2899(3) 0.3577(4) 0.0573(2)
H6 H 0.317572 0.314940 0.097398
H7 H 0.335623 0.009267 0.217495
O12 O 0.62664(18) 0.2080(3) 0.66922(14)
N5 N 0.63122(16) 0.0926(3) 0.83175(14)
N6 N 0.54575(18) 0.0618(3) 0.65905(15)
N7 N 0.57105(19) 0.1655(4) 0.80804(15)
C28 C 0.5825(2) 0.1299(4) 0.63570(18)
N8 N 0.5662(2) 0.0870(4) 0.72426(17)
C33 C 0.6289(2) 0.0450(4) 0.78078(18)
C34 C 0.5302(3) 0.1635(5) 0.7424(2)
H16 H 0.485513 0.206468 0.714430
Zn3 Zn 0.29402(2) 0.92183(4) 0.07201(2)
Zn6 Zn 0.70598(2) 0.07817(4) 0.92799(2)
C1_2 C 0.250000 0.6861(4) 1.000000
C5_2 C 0.250000 0.5485(5) 1.000000
C8_2 C 0.250000 0.1559(5) 1.000000
C9_2 C 0.250000 0.2939(5) 1.000000
O7 O 0.21938(16) 0.7385(2) 0.94578(13)
O8 O 0.2143(2) 0.1040(3) 0.94624(16)
C20 C 0.2093(3) 0.4845(4) 0.9423(2)
H9 H 0.180607 0.526843 0.902139
C21 C 0.2101(3) 0.3577(4) 0.9427(2)
H10 H 0.182428 0.314940 0.902602
Zn4 Zn 0.20598(2) 0.92183(4) 0.92799(2)
O2 O 0.19285(15) 0.9340(3) 0.05937(14)
O5 O 0.37336(18) 0.7920(3) 0.33078(14)
N1 N 0.36878(16) 0.9074(3) 0.16825(14)
N2 N 0.45425(18) 0.9382(3) 0.34095(15)
N3 N 0.42895(19) 0.8345(4) 0.19196(15)
C3 C 0.1339(2) 0.9386(3) 0.00485(18)
C6 C 0.4175(2) 0.8701(4) 0.36430(18)
C7 C 0.0644(2) 0.9694(3) 0.00259(18)
N4 N 0.4338(2) 0.9130(4) 0.27574(17)
C14 C 0.0651(2) 0.9835(5) 0.0594(2)
H3 H 0.109958 0.972405 0.100440
C18 C 0.3711(2) 0.9550(4) 0.21922(18)
C19 C 0.4698(3) 0.8365(5) 0.2576(2)
H8 H 0.514487 0.793532 0.285570
O11 O 0.47335(17) 0.9030(3) 0.65271(13)
C26 C 0.4903(2) 0.9885(3) 0.46784(16)
C27 C 0.4752(2) 0.9442(3) 0.55802(17)
C29 C 0.4970(2) 0.9642(4) 0.62622(17)
C30 C 0.4365(2) 0.8985(3) 0.43098(17)
C31 C 0.4221(2) 0.8585(4) 0.52064(18)
H13 H 0.398885 0.814528 0.538639
C32 C 0.4022(2) 0.8359(4) 0.45661(18)
H14 H 0.365212 0.777545 0.430847
H15 H 0.664377 0.990733 0.782505
O16 O 0.37207(15) 0.9186(3) 0.04820(14)
O4 O 0.12793(15) 0.9186(3) 0.95180(14)
O15 O 0.30715(15) 0.9340(3) 0.94063(14)
N9 N 0.13122(16) 0.9074(3) 0.83175(14)
O10 O 0.87207(15) 0.0814(3) 0.04820(14)
Zn7 Zn 0.79402(2) 0.07817(4) 0.07201(2)
O9 O 0.80715(15) 0.0660(3) 0.94063(14)
C22 C 0.8661(2) 0.0614(3) 0.99515(18)
C23 C 0.9356(2) 0.0306(3) 0.99741(18)
C24 C 0.9349(2) 0.0165(5) 0.9406(2)
H11 H 0.890042 0.027595 0.899560
C25 C 0.9988(2) 0.9863(5) 0.9432(2)
H12 H 0.997853 0.977065 0.903740
O9_2 O 0.69285(15) 0.0660(3) 0.05937(14)
C22_2 C 0.6339(2) 0.0614(3) 0.00485(18)
C23_2 C 0.5644(2) 0.0306(3) 0.00259(18)
C24_2 C 0.5651(2) 0.0165(5) 0.0594(2)
H11_2 H 0.609958 0.027595 0.100440
C15_2 C 0.4988(2) 0.0137(5) 0.9432(2)
H4_2 H 0.497853 0.022935 0.903740
H7_2 H 0.164377 0.009267 0.782505
O10_2 O 0.62793(15) 0.0814(3) 0.95180(14)
H16_2 H 0.014487 0.206468 0.285570
C25_2 C 0.5012(2) 0.9863(5) 0.0568(2)
H12_2 H 0.502147 0.977065 0.096260
O5_2 O 0.12664(18) 0.7920(3) 0.66922(14)
N2_2 N 0.04575(18) 0.9382(3) 0.65905(15)
N3_2 N 0.07105(19) 0.8345(4) 0.80804(15)
C3_2 C 0.3661(2) 0.9386(3) 0.99515(18)
C6_2 C 0.0825(2) 0.8701(4) 0.63570(18)
C7_2 C 0.4356(2) 0.9694(3) 0.99741(18)
N4_2 N 0.0662(2) 0.9130(4) 0.72426(17)
C14_2 C 0.4349(2) 0.9835(5) 0.9406(2)
H3_2 H 0.390042 0.972405 0.899560
C18_2 C 0.1289(2) 0.9550(4) 0.78078(18)
C19_2 C 0.0302(3) 0.8365(5) 0.7424(2)
O11_2 O 0.02665(17) 0.9030(3) 0.34729(13)
C26_2 C 0.0097(2) 0.9885(3) 0.53216(16)
C27_2 C 0.0248(2) 0.9442(3) 0.44198(17)
C29_2 C 0.0030(2) 0.9642(4) 0.37378(17)
C30_2 C 0.0635(2) 0.8985(3) 0.56902(17)
C31_2 C 0.0779(2) 0.8585(4) 0.47936(18)
H13_2 H 0.101115 0.814528 0.461361
C32_2 C 0.0978(2) 0.8359(4) 0.54339(18)
H14_2 H 0.134788 0.777545 0.569153
O3_2 O 0.97335(17) 0.0970(3) 0.65271(13)
C2_2 C 0.9903(2) 0.0115(3) 0.46784(16)
C4_2 C 0.9752(2) 0.0558(3) 0.55802(17)
C10_2 C 0.9970(2) 0.0358(4) 0.62622(17)
C11_2 C 0.9365(2) 0.1015(3) 0.43098(17)
C12_2 C 0.9221(2) 0.1415(4) 0.52064(18)
H1_2 H 0.898885 0.185472 0.538639
C13_2 C 0.9022(2) 0.1641(4) 0.45661(18)
H2_2 H 0.865212 0.222455 0.430847
O12_2 O 0.87336(18) 0.2080(3) 0.33078(14)
N5_2 N 0.86878(16) 0.0926(3) 0.16825(14)
N6_2 N 0.95425(18) 0.0618(3) 0.34095(15)
N7_2 N 0.92895(19) 0.1655(4) 0.19196(15)
C28_2 C 0.9175(2) 0.1299(4) 0.36430(18)
N8_2 N 0.9338(2) 0.0870(4) 0.27574(17)
C33_2 C 0.8711(2) 0.0450(4) 0.21922(18)
C34_2 C 0.9698(3) 0.1635(5) 0.2576(2)
H8_2 H 0.985513 0.793532 0.714430
H15_2 H 0.835623 0.990733 0.217495
O14 O 0.78062(16) 0.2615(2) 0.05422(13)
O13 O 0.71938(16) 0.2615(2) 0.94578(13)
C1_3 C 0.750000 0.3139(4) 0.000000
C5_3 C 0.750000 0.4515(5) 0.000000
C8_3 C 0.750000 0.8441(5) 0.000000
C9_3 C 0.750000 0.7061(5) 0.000000
O8_2 O 0.7857(2) 0.8960(3) 0.05376(16)
C20_2 C 0.7907(3) 0.5155(4) 0.0577(2)
H9_2 H 0.819393 0.473157 0.097861
C21_2 C 0.7899(3) 0.6423(4) 0.0573(2)
H10_2 H 0.817572 0.685060 0.097398
O6_2 O 0.7143(2) 0.8960(3) 0.94624(16)
C1_4 C 0.750000 0.3139(4) 1.000000
C5_4 C 0.750000 0.4515(5) 1.000000
C8_4 C 0.750000 0.8441(5) 1.000000
C9_4 C 0.750000 0.7061(5) 1.000000
C16_2 C 0.7093(3) 0.5155(4) 0.9423(2)
H5_2 H 0.680607 0.473157 0.902139
C17_2 C 0.7101(3) 0.6423(4) 0.9427(2)
H6_2 H 0.682428 0.685060 0.902602
C2_3 C 0.0097(2) 0.5115(3) 0.03216(16)
C11_3 C 0.0635(2) 0.6015(3) 0.06902(17)
C13_3 C 0.0978(2) 0.6641(4) 0.04339(18)
H2_3 H 0.134788 0.722455 0.069153
O12_3 O 0.12664(18) 0.7080(3) 0.16922(14)
N5_3 N 0.13122(16) 0.5926(3) 0.33175(14)
N6_3 N 0.04575(18) 0.5618(3) 0.15905(15)
N7_3 N 0.07105(19) 0.6655(4) 0.30804(15)
C28_3 C 0.0825(2) 0.6299(4) 0.13570(18)
N8_3 N 0.0662(2) 0.5870(4) 0.22426(17)
C33_3 C 0.1289(2) 0.5450(4) 0.28078(18)
H15_3 H 0.164377 0.490733 0.282505
C34_3 C 0.0302(3) 0.6635(5) 0.2424(2)
Zn6_2 Zn 0.20598(2) 0.57817(4) 0.42799(2)
O1_2 O 0.78062(16) 0.2385(2) 0.55422(13)
C1_5 C 0.750000 0.1861(4) 0.500000
C5_5 C 0.750000 0.0485(5) 0.500000
H5_3 H 0.819393 0.026843 0.597861
O7_2 O 0.71938(16) 0.2385(2) 0.44578(13)
H9_3 H 0.680607 0.026843 0.402139
Zn3_2 Zn 0.79402(2) 0.42183(4) 0.57201(2)
Zn4_2 Zn 0.70598(2) 0.42183(4) 0.42799(2)
O2_2 O 0.69285(15) 0.4340(3) 0.55937(14)
O4_2 O 0.62793(15) 0.4186(3) 0.45180(14)
O5_3 O 0.87336(18) 0.2920(3) 0.83078(14)
O6_3 O 0.7857(2) 0.6040(3) 0.55376(16)
N1_2 N 0.86878(16) 0.4074(3) 0.66825(14)
N2_3 N 0.95425(18) 0.4382(3) 0.84095(15)
N3_3 N 0.92895(19) 0.3345(4) 0.69196(15)
C3_3 C 0.6339(2) 0.4386(3) 0.50485(18)
C6_3 C 0.9175(2) 0.3701(4) 0.86430(18)
C7_3 C 0.5644(2) 0.4694(3) 0.50259(18)
C8_5 C 0.750000 0.6559(5) 0.500000
C9_5 C 0.750000 0.7939(5) 0.500000
N4_3 N 0.9338(2) 0.4130(4) 0.77574(17)
C14_3 C 0.5651(2) 0.4835(5) 0.5594(2)
H3_3 H 0.609958 0.472405 0.600440
C15_3 C 0.5012(2) 0.5137(5) 0.5568(2)
H4_3 H 0.502147 0.522935 0.596260
C16_3 C 0.7907(3) 0.9845(4) 0.5577(2)
C17_3 C 0.7899(3) 0.8577(4) 0.5573(2)
H6_3 H 0.817572 0.814940 0.597398
C18_3 C 0.8711(2) 0.4550(4) 0.71922(18)
H7_3 H 0.835623 0.509267 0.717495
C19_3 C 0.9698(3) 0.3365(5) 0.7576(2)
O8_3 O 0.7143(2) 0.6040(3) 0.44624(16)
C20_3 C 0.7093(3) 0.9845(4) 0.4423(2)
C21_3 C 0.7101(3) 0.8577(4) 0.4427(2)
H10_3 H 0.682428 0.814940 0.402602
O9_3 O 0.30715(15) 0.5660(3) 0.44063(14)
O10_3 O 0.37207(15) 0.5814(3) 0.54820(14)
C22_3 C 0.3661(2) 0.5614(3) 0.49515(18)
C23_3 C 0.4356(2) 0.5306(3) 0.49741(18)
C24_3 C 0.4349(2) 0.5165(5) 0.4406(2)
H11_3 H 0.390042 0.527595 0.399560
C25_3 C 0.4988(2) 0.4863(5) 0.4432(2)
H12_3 H 0.497853 0.477065 0.403740
C26_3 C 0.9903(2) 0.4885(3) 0.96784(16)
C30_3 C 0.9365(2) 0.3985(3) 0.93098(17)
C32_3 C 0.9022(2) 0.3359(4) 0.95661(18)
H14_3 H 0.865212 0.277545 0.930847
Zn7_2 Zn 0.29402(2) 0.57817(4) 0.57201(2)
O15_2 O 0.80715(15) 0.4340(3) 0.44063(14)
O16_2 O 0.87207(15) 0.4186(3) 0.54820(14)
N9_2 N 0.63122(16) 0.4074(3) 0.33175(14)
O9_4 O 0.19285(15) 0.5660(3) 0.55937(14)
O10_4 O 0.12793(15) 0.5814(3) 0.45180(14)
C22_4 C 0.1339(2) 0.5614(3) 0.50485(18)
C23_4 C 0.0644(2) 0.5306(3) 0.50259(18)
C24_4 C 0.0651(2) 0.5165(5) 0.5594(2)
H11_4 H 0.109958 0.527595 0.600440
C25_4 C 0.0012(2) 0.4863(5) 0.5568(2)
H12_4 H 0.002147 0.477065 0.596260
O3_3 O 0.47335(17) 0.5970(3) 0.15271(13)
O5_4 O 0.62664(18) 0.2920(3) 0.16922(14)
N2_4 N 0.54575(18) 0.4382(3) 0.15905(15)
N3_4 N 0.57105(19) 0.3345(4) 0.30804(15)
C3_4 C 0.8661(2) 0.4386(3) 0.49515(18)
C4_3 C 0.4752(2) 0.5558(3) 0.05802(17)
C6_4 C 0.5825(2) 0.3701(4) 0.13570(18)
C7_4 C 0.9356(2) 0.4694(3) 0.49741(18)
C10_3 C 0.4970(2) 0.5358(4) 0.12622(17)
N4_4 N 0.5662(2) 0.4130(4) 0.22426(17)
C12_3 C 0.4221(2) 0.6415(4) 0.02064(18)
H1_3 H 0.398885 0.685472 0.038639
C14_4 C 0.9349(2) 0.4835(5) 0.4406(2)
H3_4 H 0.890042 0.472405 0.399560
C15_4 C 0.9988(2) 0.5137(5) 0.4432(2)
H4_4 H 0.997853 0.522935 0.403740
C18_4 C 0.6289(2) 0.4550(4) 0.28078(18)
H7_4 H 0.664377 0.509267 0.282505
C19_4 C 0.5302(3) 0.3365(5) 0.2424(2)
H8_3 H 0.485513 0.293532 0.214430
C26_4 C 0.5097(2) 0.4885(3) 0.03216(16)
C30_4 C 0.5635(2) 0.3985(3) 0.06902(17)
C32_4 C 0.5978(2) 0.3359(4) 0.04339(18)
H14_4 H 0.634788 0.277545 0.069153
C2_4 C 0.4903(2) 0.5115(3) 0.96784(16)
C11_4 C 0.4365(2) 0.6015(3) 0.93098(17)
C13_4 C 0.4022(2) 0.6641(4) 0.95661(18)
H2_4 H 0.365212 0.722455 0.930847
O11_3 O 0.52665(17) 0.4030(3) 0.84729(13)
O12_4 O 0.37336(18) 0.7080(3) 0.83078(14)
N5_4 N 0.36878(16) 0.5926(3) 0.66825(14)
N6_4 N 0.45425(18) 0.5618(3) 0.84095(15)
N7_4 N 0.42895(19) 0.6655(4) 0.69196(15)
C27_3 C 0.5248(2) 0.4442(3) 0.94198(17)
C28_4 C 0.4175(2) 0.6299(4) 0.86430(18)
C29_3 C 0.5030(2) 0.4642(4) 0.87378(17)
N8_4 N 0.4338(2) 0.5870(4) 0.77574(17)
C31_3 C 0.5779(2) 0.3585(4) 0.97936(18)
H13_3 H 0.601115 0.314528 0.961361
C33_4 C 0.3711(2) 0.5450(4) 0.71922(18)
H15_4 H 0.335623 0.490733 0.717495
C34_4 C 0.4698(3) 0.6635(5) 0.7576(2)
H16_3 H 0.514487 0.706468 0.785570
O6_4 O 0.2143(2) 0.3960(3) 0.44624(16)
C8_6 C 0.250000 0.3441(5) 0.500000
C9_6 C 0.250000 0.2061(5) 0.500000
C16_4 C 0.2093(3) 0.0155(4) 0.4423(2)
C17_4 C 0.2101(3) 0.1423(4) 0.4427(2)
H6_4 H 0.182428 0.185060 0.402602
O8_4 O 0.2857(2) 0.3960(3) 0.55376(16)
C20_4 C 0.2907(3) 0.0155(4) 0.5577(2)
C21_4 C 0.2899(3) 0.1423(4) 0.5573(2)
H10_4 H 0.317572 0.185060 0.597398
O13_2 O 0.21938(16) 0.7615(2) 0.44578(13)
O14_2 O 0.28062(16) 0.7615(2) 0.55422(13)
C1_6 C 0.250000 0.8139(4) 0.500000
C5_6 C 0.250000 0.9515(5) 0.500000
H5_4 H 0.180607 0.973157 0.402139
H9_4 H 0.319393 0.973157 0.597861
O3_4 O 0.02665(17) 0.5970(3) 0.84729(13)
C4_4 C 0.0248(2) 0.5558(3) 0.94198(17)
C10_4 C 0.0030(2) 0.5358(4) 0.87378(17)
C12_4 C 0.0779(2) 0.6415(4) 0.97936(18)
H1_4 H 0.101115 0.685472 0.961361
H8_4 H 0.014487 0.293532 0.785570
O11_4 O 0.97335(17) 0.4030(3) 0.15271(13)
C27_4 C 0.9752(2) 0.4442(3) 0.05802(17)
C29_4 C 0.9970(2) 0.4642(4) 0.12622(17)
C31_4 C 0.9221(2) 0.3585(4) 0.02064(18)
H13_4 H 0.898885 0.314528 0.038639
H16_4 H 0.985513 0.706468 0.214430
loop_
_geom_bond_atom_site_label_1
_geom_bond_atom_site_label_2
_geom_bond_site_symmetry_1
_geom_bond_site_symmetry_2
O1 C1 1_555 1_555
O3 C10 1_555 1_555
C1 C5 1_555 1_555
C2 C11 1_555 1_555
C4 C10 1_555 1_555
C5 C16 1_555 1_555
C8 O6 1_555 1_555
C9 C8 1_555 1_555
C11 C13 1_555 1_555
C12 C4 1_555 1_555
H1 C12 1_555 1_555
C13 C12 1_555 1_555
H2 C13 1_555 1_555
H4 C15 1_555 1_555
C16 H5 1_555 1_555
C17 C9 1_555 1_555
H6 C17 1_555 1_555
O12 C28 1_555 1_555
N5 N7 1_555 1_555
N6 C28 1_555 1_555
N7 C34 1_555 1_555
C28 C11 1_555 1_555
N8 N6 1_555 1_555
C33 N5 1_555 1_555
C34 N8 1_555 1_555
H16 C34 1_555 1_555
Zn3 O1 1_555 1_555
Zn6 N5 1_555 1_555
C16 C17 1_555 1_555
N8 C33 1_555 1_555
C1_2 C5_2 1_555 1_555
C9_2 C8_2 1_555 1_555
O7 C1_2 1_555 1_555
O8 C8_2 1_555 1_555
C20 C5_2 1_555 1_555
H9 C20 1_555 1_555
C21 C9_2 1_555 1_555
H10 C21 1_555 1_555
Zn4 O7 1_555 1_555
C20 C21 1_555 1_555
Zn3 O2 1_555 1_555
O2 C3 1_555 1_555
O5 C6 1_555 1_555
N1 Zn3 1_555 1_555
N2 C6 1_555 1_555
N3 N1 1_555 1_555
C3 C7 1_555 1_555
C6 C30 1_555 1_555
C7 C14 1_555 1_555
N4 N2 1_555 1_555
C14 H3 1_555 1_555
C18 N1 1_555 1_555
C19 N3 1_555 1_555
H8 C19 1_555 1_555
O11 C29 1_555 1_555
C30 C26 1_555 1_555
C31 C27 1_555 1_555
H13 C31 1_555 1_555
C32 C30 1_555 1_555
H14 C32 1_555 1_555
O16 Zn3 1_555 1_555
N4 C18 1_555 1_555
N4 C19 1_555 1_555
C27 C29 1_555 1_555
C31 C32 1_555 1_555
Zn4 O4 1_555 1_555
O15 Zn4 1_555 1_555
N9 Zn4 1_555 1_555
Zn7 O10 1_555 1_555
O9 C22 1_555 1_555
C22 C23 1_555 1_555
C24 C23 1_555 1_555
H11 C24 1_555 1_555
Zn6 O9 1_555 1_555
H12 C25 1_555 1_555
O9_2 C22_2 1_555 1_555
C22_2 C23_2 1_555 1_555
C24_2 C23_2 1_555 1_555
H11_2 C24_2 1_555 1_555
Zn7 O9_2 1_555 1_555
H4_2 C15_2 1_555 1_555
Zn6 O10_2 1_555 1_555
H12_2 C25_2 1_555 1_555
O15 C3_2 1_555 1_555
O5_2 C6_2 1_555 1_555
N2_2 C6_2 1_555 1_555
N3_2 N9 1_555 1_555
C3_2 C7_2 1_555 1_555
C6_2 C30_2 1_555 1_555
C7_2 C14_2 1_555 1_555
N4_2 N2_2 1_555 1_555
C14_2 H3_2 1_555 1_555
C18_2 N9 1_555 1_555
C19_2 N3_2 1_555 1_555
O11_2 C29_2 1_555 1_555
C30_2 C26_2 1_555 1_555
C31_2 C27_2 1_555 1_555
H13_2 C31_2 1_555 1_555
C32_2 C30_2 1_555 1_555
H14_2 C32_2 1_555 1_555
N4_2 C18_2 1_555 1_555
N4_2 C19_2 1_555 1_555
C27_2 C29_2 1_555 1_555
C31_2 C32_2 1_555 1_555
O3_2 C10_2 1_555 1_555
C2_2 C11_2 1_555 1_555
C4_2 C10_2 1_555 1_555
C11_2 C13_2 1_555 1_555
C12_2 C4_2 1_555 1_555
H1_2 C12_2 1_555 1_555
C13_2 C12_2 1_555 1_555
H2_2 C13_2 1_555 1_555
O12_2 C28_2 1_555 1_555
N5_2 N7_2 1_555 1_555
N6_2 C28_2 1_555 1_555
N7_2 C34_2 1_555 1_555
C28_2 C11_2 1_555 1_555
N8_2 N6_2 1_555 1_555
C33_2 N5_2 1_555 1_555
C34_2 N8_2 1_555 1_555
Zn7 N5_2 1_555 1_555
N8_2 C33_2 1_555 1_555
O14 Zn7 1_555 1_555
O13 Zn6 1_555 1_555
C1_3 C5_3 1_555 1_555
C9_3 C8_3 1_555 1_555
O14 C1_3 1_555 1_555
O8_2 C8_3 1_555 1_555
C20_2 C5_3 1_555 1_555
H9_2 C20_2 1_555 1_555
C21_2 C9_3 1_555 1_555
H10_2 C21_2 1_555 1_555
C20_2 C21_2 1_555 1_555
O13 C1_4 1_555 1_555
C1_4 C5_4 1_555 1_555
C5_4 C16_2 1_555 1_555
C8_4 O6_2 1_555 1_555
C9_4 C8_4 1_555 1_555
C16_2 H5_2 1_555 1_555
C17_2 C9_4 1_555 1_555
H6_2 C17_2 1_555 1_555
C16_2 C17_2 1_555 1_555
C2_3 C11_3 1_555 1_555
C11_3 C13_3 1_555 1_555
H2_3 C13_3 1_555 1_555
O12_3 C28_3 1_555 1_555
N5_3 N7_3 1_555 1_555
N6_3 C28_3 1_555 1_555
N7_3 C34_3 1_555 1_555
C28_3 C11_3 1_555 1_555
N8_3 N6_3 1_555 1_555
C33_3 N5_3 1_555 1_555
H15_3 C33_3 1_555 1_555
C34_3 N8_3 1_555 1_555
Zn6_2 N5_3 1_555 1_555
N8_3 C33_3 1_555 1_555
O1_2 C1_5 1_555 1_555
C1_5 C5_5 1_555 1_555
O7_2 C1_5 1_555 1_555
Zn3_2 O1_2 1_555 1_555
Zn4_2 O7_2 1_555 1_555
Zn3_2 O2_2 1_555 1_555
O2_2 C3_3 1_555 1_555
O4_2 C3_3 1_555 1_555
O5_3 C6_3 1_555 1_555
O6_3 Zn3_2 1_555 1_555
N1_2 Zn3_2 1_555 1_555
N2_3 C6_3 1_555 1_555
N3_3 N1_2 1_555 1_555
C3_3 C7_3 1_555 1_555
C6_3 C30_3 1_555 1_555
C7_3 C14_3 1_555 1_555
C8_5 O6_3 1_555 1_555
C9_5 C8_5 1_555 1_555
N4_3 N2_3 1_555 1_555
C14_3 H3_3 1_555 1_555
C15_3 C14_3 1_555 1_555
H4_3 C15_3 1_555 1_555
C17_3 C9_5 1_555 1_555
H6_3 C17_3 1_555 1_555
C18_3 N1_2 1_555 1_555
H7_3 C18_3 1_555 1_555
C19_3 N3_3 1_555 1_555
O8_3 C8_5 1_555 1_555
C21_3 C9_5 1_555 1_555
H10_3 C21_3 1_555 1_555
O9_3 C22_3 1_555 1_555
O10_3 C22_3 1_555 1_555
C22_3 C23_3 1_555 1_555
C23_3 C15_3 1_555 1_555
C24_3 C23_3 1_555 1_555
H11_3 C24_3 1_555 1_555
C25_3 C7_3 1_555 1_555
H12_3 C25_3 1_555 1_555
C30_3 C26_3 1_555 1_555
C32_3 C30_3 1_555 1_555
H14_3 C32_3 1_555 1_555
Zn4_2 O4_2 1_555 1_555
Zn6_2 O9_3 1_555 1_555
Zn7_2 O10_3 1_555 1_555
O15_2 Zn4_2 1_555 1_555
O16_2 Zn3_2 1_555 1_555
N9_2 Zn4_2 1_555 1_555
N4_3 C18_3 1_555 1_555
N4_3 C19_3 1_555 1_555
C16_3 C17_3 1_555 1_555
O8_3 Zn4_2 1_555 1_555
C20_3 C21_3 1_555 1_555
C24_3 C25_3 1_555 1_555
O9_4 C22_4 1_555 1_555
O10_4 C22_4 1_555 1_555
C22_4 C23_4 1_555 1_555
C24_4 C23_4 1_555 1_555
H11_4 C24_4 1_555 1_555
H12_4 C25_4 1_555 1_555
Zn7_2 O9_4 1_555 1_555
Zn6_2 O10_4 1_555 1_555
C24_4 C25_4 1_555 1_555
O15_2 C3_4 1_555 1_555
O3_3 C10_3 1_555 1_555
O16_2 C3_4 1_555 1_555
O5_4 C6_4 1_555 1_555
N2_4 C6_4 1_555 1_555
N3_4 N9_2 1_555 1_555
C3_4 C7_4 1_555 1_555
C4_3 C10_3 1_555 1_555
C6_4 C30_4 1_555 1_555
C7_4 C14_4 1_555 1_555
C10_3 N2_4 1_555 1_555
N4_4 N2_4 1_555 1_555
C12_3 C4_3 1_555 1_555
H1_3 C12_3 1_555 1_555
C14_4 H3_4 1_555 1_555
C15_4 C14_4 1_555 1_555
H4_4 C15_4 1_555 1_555
C18_4 N9_2 1_555 1_555
H7_4 C18_4 1_555 1_555
C19_4 N3_4 1_555 1_555
H8_3 C19_4 1_555 1_555
C30_4 C26_4 1_555 1_555
C32_4 C30_4 1_555 1_555
H14_4 C32_4 1_555 1_555
C4_3 C26_4 1_555 1_555
N4_4 C18_4 1_555 1_555
N4_4 C19_4 1_555 1_555
C2_4 C11_4 1_555 1_555
C11_4 C13_4 1_555 1_555
H2_4 C13_4 1_555 1_555
O11_3 C29_3 1_555 1_555
O12_4 C28_4 1_555 1_555
N5_4 N7_4 1_555 1_555
N6_4 C28_4 1_555 1_555
N7_4 C34_4 1_555 1_555
C27_3 C2_4 1_555 1_555
C28_4 C11_4 1_555 1_555
C29_3 N6_4 1_555 1_555
N8_4 N6_4 1_555 1_555
C31_3 C27_3 1_555 1_555
H13_3 C31_3 1_555 1_555
C33_4 N5_4 1_555 1_555
H15_4 C33_4 1_555 1_555
C34_4 N8_4 1_555 1_555
H16_3 C34_4 1_555 1_555
Zn7_2 N5_4 1_555 1_555
C27_3 C29_3 1_555 1_555
N8_4 C33_4 1_555 1_555
O6_4 Zn6_2 1_555 1_555
C8_6 O6_4 1_555 1_555
C9_6 C8_6 1_555 1_555
C17_4 C9_6 1_555 1_555
H6_4 C17_4 1_555 1_555
O8_4 C8_6 1_555 1_555
C21_4 C9_6 1_555 1_555
H10_4 C21_4 1_555 1_555
O13_2 Zn6_2 1_555 1_555
O14_2 Zn7_2 1_555 1_555
C16_4 C17_4 1_555 1_555
O8_4 Zn7_2 1_555 1_555
C20_4 C21_4 1_555 1_555
O13_2 C1_6 1_555 1_555
C1_6 C5_6 1_555 1_555
O14_2 C1_6 1_555 1_555
O3_4 C10_4 1_555 1_555
C4_4 C10_4 1_555 1_555
C12_4 C4_4 1_555 1_555
H1_4 C12_4 1_555 1_555
O11_4 C29_4 1_555 1_555
C31_4 C27_4 1_555 1_555
H13_4 C31_4 1_555 1_555
C27_4 C29_4 1_555 1_555

#END
