
###############################################################################
#
# This file contains modified crystal structure data generated from the
# MOF subset of the Cambridge Structural Database (CSD) v542 
# hosted by the Cambridge Crystallographic Data Centre (CCDC).
#
# This work is licensed under the Creative Commons
# Attribution-NonCommercial-ShareAlike 4.0 International License.
# To view a copy of this license, visit
# http://creativecommons.org/licenses/by-nc-sa/4.0/
# or send a letter to
# Creative Commons, PO Box 1866, Mountain View, CA 94042, USA.
#
# CIF created using the CSD Python API on 22 February 2021
# The structure has been converted into the P1 space group
# The structure has a 3D framework
# The original CSD entry OHICAM is in the monoclinic crystal system
# The framework has been calculated to contain at least 10.0% void space
# The void calculation uses a probe of radius 1.32A, grid spacing 0.4
#
###############################################################################

data_OHICAM
_chemical_formula_moiety         '(C68 H52 Co4 N24 O16)n'
_symmetry_cell_setting           triclinic
_symmetry_space_group_name_H-M   'P 1'
_symmetry_Int_Tables_number      1
_space_group_name_Hall           'P 1'
loop_
_symmetry_equiv_pos_site_id
_symmetry_equiv_pos_as_xyz
1 x,y,z
_cell_length_a                   11.537(2)
_cell_length_b                   15.822(2)
_cell_length_c                   11.9324(5)
_cell_angle_alpha                90
_cell_angle_beta                 91.936(4)
_cell_angle_gamma                90
_cell_volume                     2176.88
loop_
_atom_site_label
_atom_site_type_symbol
_atom_site_fract_x
_atom_site_fract_y
_atom_site_fract_z
O2 O 0.1831(4) 0.1819(3) 0.0020(4)
O3 O 0.2080(4) 0.0600(2) 0.2195(3)
O4 O 0.0687(3) 0.1529(2) 0.2144(3)
C15 C 0.0591(4) 0.0443(3) 0.0829(4)
C17 C 0.1177(5) 0.0883(3) 0.1773(4)
Co6 Co 0.15487(5) 0.20309(3) 0.34386(5)
Co1 Co 0.15487(5) 0.29691(3) 0.84386(5)
O1 O 0.0517(4) 0.2011(2) 0.8694(3)
N1 N 0.3002(5) 0.2527(4) 0.7893(5)
N2 N 0.4528(5) 0.2410(4) 0.6913(5)
C1 C 0.3604(6) 0.1861(5) 0.8296(7)
H1 H 0.339581 0.151425 0.888496
N5 N 0.4565(5) 0.1787(4) 0.7695(5)
C2 C 0.3589(6) 0.2828(4) 0.7046(7)
H2 H 0.335090 0.328458 0.660368
C3 C 0.5399(7) 0.2577(5) 0.6119(8)
H3 H 0.612193 0.270517 0.652294
H4 H 0.517601 0.307379 0.568708
C4 C 0.5600(6) 0.1869(4) 0.5336(6)
C5 C 0.4703(6) 0.1463(5) 0.4810(7)
H5 H 0.394543 0.160576 0.497303
C6 C 0.4902(7) 0.0856(5) 0.4053(7)
H6 H 0.427967 0.057641 0.370399
C7 C 0.6002(7) 0.0647(5) 0.3793(6)
H7 H 0.613651 0.023830 0.325197
C8 C 0.6911(6) 0.1046(4) 0.4338(5)
C9 C 0.6688(5) 0.1649(4) 0.5096(6)
H8 H 0.730558 0.192124 0.546448
C10 C 0.8117(6) 0.0830(4) 0.4116(6)
H9 H 0.826951 0.094305 0.333553
H10 H 0.863474 0.117832 0.457647
C13 C 0.0955(5) 0.1607(3) 0.9502(4)
C14 C 0.0416(5) 0.0796(3) 0.9790(4)
O10 O 0.0687(3) 0.3471(2) 0.7144(3)
N13 N 0.1515(4) 0.3785(3) 0.9693(3)
N3 N 0.8485(4) 0.8785(3) 0.5307(3)
N4 N 0.8339(5) 0.9939(3) 0.4361(4)
N6 N 0.8558(5) 0.9329(4) 0.3604(5)
C11 C 0.8638(6) 0.8620(4) 0.4211(5)
H11 H 0.877951 0.808696 0.391812
C12 C 0.8302(5) 0.9589(3) 0.5352(4)
H12 H 0.816207 0.988368 0.600874
Co4 Co 0.84513(5) 0.79691(3) 0.65614(5)
N9 N 0.1515(4) 0.1215(3) 0.4693(3)
N10 N 0.1661(5) 0.0061(3) 0.5639(4)
N12 N 0.1442(5) 0.0671(4) 0.6396(5)
C33 C 0.1362(6) 0.1380(4) 0.5789(5)
H25 H 0.122049 0.191304 0.608188
C34 C 0.1698(5) 0.0411(3) 0.4648(4)
H26 H 0.183793 0.011632 0.399126
O5 O 0.9483(4) 0.7989(2) 0.1306(3)
C18 C 0.9045(5) 0.8393(3) 0.0498(4)
C19 C 0.9584(5) 0.9204(3) 0.0210(4)
Co2 Co 0.84513(5) 0.70309(3) 0.15614(5)
N7 N 0.6998(5) 0.7473(4) 0.2107(5)
N8 N 0.5472(5) 0.7590(4) 0.3087(5)
C23 C 0.6396(6) 0.8139(5) 0.1704(7)
H15 H 0.660419 0.848575 0.111504
N11 N 0.5435(5) 0.8213(4) 0.2305(5)
C24 C 0.6411(6) 0.7172(4) 0.2954(7)
H16 H 0.664910 0.671542 0.339632
C25 C 0.4601(7) 0.7423(5) 0.3881(8)
H17 H 0.387807 0.729483 0.347706
H18 H 0.482399 0.692621 0.431292
C26 C 0.4400(6) 0.8131(4) 0.4664(6)
C27 C 0.5297(6) 0.8537(5) 0.5190(7)
H19 H 0.605457 0.839424 0.502697
C28 C 0.5098(7) 0.9144(5) 0.5947(7)
H20 H 0.572033 0.942359 0.629601
C29 C 0.3998(7) 0.9353(5) 0.6207(6)
H21 H 0.386349 0.976170 0.674803
C30 C 0.3089(6) 0.8954(4) 0.5662(5)
C31 C 0.3312(5) 0.8351(4) 0.4904(6)
H22 H 0.269442 0.807876 0.453552
C32 C 0.1883(6) 0.9170(4) 0.5884(6)
H23 H 0.173049 0.905695 0.666447
H24 H 0.136526 0.882168 0.542353
O9 O 0.9313(3) 0.6529(2) 0.2856(3)
N14 N 0.8485(4) 0.6215(3) 0.0307(3)
O6 O 0.8169(4) 0.8181(3) 0.9980(4)
O7 O 0.7920(4) 0.9400(2) 0.7805(3)
O8 O 0.9313(3) 0.8471(2) 0.7856(3)
C20 C 0.9409(4) 0.9557(3) 0.9171(4)
C22 C 0.8823(5) 0.9117(3) 0.8227(4)
C16 C 0.0182(5) 0.5347(3) 0.6029(4)
H13 H 0.030993 0.558841 0.673344
O5_2 O 0.0517(4) 0.2989(2) 0.3694(3)
O6_2 O 0.1831(4) 0.3181(3) 0.5020(4)
O7_2 O 0.2080(4) 0.4400(2) 0.7195(3)
C18_2 C 0.0955(5) 0.3393(3) 0.4502(4)
C19_2 C 0.0416(5) 0.4204(3) 0.4790(4)
C20_2 C 0.0591(4) 0.4557(3) 0.5829(4)
C22_2 C 0.1177(5) 0.4117(3) 0.6773(4)
N7_2 N 0.3002(5) 0.2473(4) 0.2893(5)
N8_2 N 0.4528(5) 0.2590(4) 0.1913(5)
C23_2 C 0.3604(6) 0.3139(5) 0.3296(7)
H15_2 H 0.339581 0.348575 0.388496
N11_2 N 0.4565(5) 0.3213(4) 0.2695(5)
C24_2 C 0.3589(6) 0.2172(4) 0.2046(7)
H16_2 H 0.335090 0.171542 0.160368
C25_2 C 0.5399(7) 0.2423(5) 0.1119(8)
H17_2 H 0.612193 0.229483 0.152294
H18_2 H 0.517601 0.192621 0.068708
C26_2 C 0.5600(6) 0.3131(4) 0.0336(6)
C31_2 C 0.6688(5) 0.3351(4) 0.0096(6)
H22_2 H 0.730558 0.307876 0.046448
C34_2 C 0.8302(5) 0.5411(3) 0.0352(4)
H26_2 H 0.816207 0.511632 0.100874
O1_2 O 0.9483(4) 0.7011(2) 0.6306(3)
O2_2 O 0.8169(4) 0.6819(3) 0.4980(4)
O3_2 O 0.7920(4) 0.5600(2) 0.2805(3)
N1_2 N 0.6998(5) 0.7527(4) 0.7107(5)
N2_2 N 0.5472(5) 0.7410(4) 0.8087(5)
C1_2 C 0.6396(6) 0.6861(5) 0.6704(7)
H1_2 H 0.660419 0.651425 0.611504
N5_2 N 0.5435(5) 0.6787(4) 0.7305(5)
C2_2 C 0.6411(6) 0.7828(4) 0.7954(7)
H2_2 H 0.664910 0.828458 0.839632
C3_2 C 0.4601(7) 0.7577(5) 0.8881(8)
H3_2 H 0.387807 0.770517 0.847706
H4_2 H 0.482399 0.807379 0.931292
C4_2 C 0.4400(6) 0.6869(4) 0.9664(6)
C9_2 C 0.3312(5) 0.6649(4) 0.9904(6)
H8_2 H 0.269442 0.692124 0.953552
C12_2 C 0.1698(5) 0.4589(3) 0.9648(4)
H12_2 H 0.183793 0.488368 0.899126
C13_2 C 0.9045(5) 0.6607(3) 0.5498(4)
C14_2 C 0.9584(5) 0.5796(3) 0.5210(4)
C15_2 C 0.9409(4) 0.5443(3) 0.4171(4)
C17_2 C 0.8823(5) 0.5883(3) 0.3227(4)
C21 C 0.9818(5) 0.4653(3) 0.3971(4)
H14 H 0.969007 0.441159 0.326656
C21_2 C 0.0182(5) 0.9653(3) 0.1029(4)
H14_2 H 0.030993 0.941159 0.173344
C16_2 C 0.9818(5) 0.0347(3) 0.8971(4)
H13_2 H 0.969007 0.058841 0.826656
N10_2 N 0.8339(5) 0.5061(3) 0.9361(4)
C27_2 C 0.4703(6) 0.3537(5) 0.9810(7)
H19_2 H 0.394543 0.339424 0.997303
C28_2 C 0.4902(7) 0.4144(5) 0.9053(7)
H20_2 H 0.427967 0.442359 0.870399
C29_2 C 0.6002(7) 0.4353(5) 0.8793(6)
H21_2 H 0.613651 0.476170 0.825197
C30_2 C 0.6911(6) 0.3954(4) 0.9338(5)
C32_2 C 0.8117(6) 0.4170(4) 0.9116(6)
H23_2 H 0.826951 0.405695 0.833553
H24_2 H 0.863474 0.382168 0.957647
N12_2 N 0.8558(5) 0.5671(4) 0.8604(5)
C33_2 C 0.8638(6) 0.6380(4) 0.9211(5)
H25_2 H 0.877951 0.691304 0.891812
N4_2 N 0.1661(5) 0.4939(3) 0.0639(4)
C5_2 C 0.5297(6) 0.6463(5) 0.0190(7)
H5_2 H 0.605457 0.660576 0.002697
C6_2 C 0.5098(7) 0.5856(5) 0.0947(7)
H6_2 H 0.572033 0.557641 0.129601
C7_2 C 0.3998(7) 0.5647(5) 0.1207(6)
H7_2 H 0.386349 0.523830 0.174803
C8_2 C 0.3089(6) 0.6046(4) 0.0662(5)
C10_2 C 0.1883(6) 0.5830(4) 0.0884(6)
H9_2 H 0.173049 0.594305 0.166447
H10_2 H 0.136526 0.617832 0.042353
N6_2 N 0.1442(5) 0.4329(4) 0.1396(5)
C11_2 C 0.1362(6) 0.3620(4) 0.0789(5)
H11_2 H 0.122049 0.308696 0.108188
loop_
_geom_bond_atom_site_label_1
_geom_bond_atom_site_label_2
_geom_bond_site_symmetry_1
_geom_bond_site_symmetry_2
O3 C17 1_555 1_555
O4 C17 1_555 1_555
C15 C17 1_555 1_555
Co6 O4 1_555 1_555
Co1 O1 1_555 1_555
O1 C13 1_555 1_555
N1 Co1 1_555 1_555
N2 N5 1_555 1_555
C1 N1 1_555 1_555
H1 C1 1_555 1_555
N5 C1 1_555 1_555
C2 N1 1_555 1_555
H2 C2 1_555 1_555
C3 N2 1_555 1_555
H3 C3 1_555 1_555
H4 C3 1_555 1_555
C4 C3 1_555 1_555
C5 C4 1_555 1_555
H5 C5 1_555 1_555
C6 C5 1_555 1_555
H6 C6 1_555 1_555
C7 C6 1_555 1_555
H7 C7 1_555 1_555
C8 C7 1_555 1_555
C9 C4 1_555 1_555
H8 C9 1_555 1_555
C10 C8 1_555 1_555
H9 C10 1_555 1_555
H10 C10 1_555 1_555
C13 C14 1_555 1_555
O10 Co1 1_555 1_555
N13 Co1 1_555 1_555
N2 C2 1_555 1_555
C8 C9 1_555 1_555
N3 C11 1_555 1_555
N6 N4 1_555 1_555
C11 N6 1_555 1_555
H11 C11 1_555 1_555
C12 N3 1_555 1_555
H12 C12 1_555 1_555
Co4 N3 1_555 1_555
N4 C12 1_555 1_555
N9 C33 1_555 1_555
N12 N10 1_555 1_555
C33 N12 1_555 1_555
H25 C33 1_555 1_555
C34 N9 1_555 1_555
H26 C34 1_555 1_555
Co6 N9 1_555 1_555
N10 C34 1_555 1_555
O5 C18 1_555 1_555
C18 C19 1_555 1_555
Co2 O5 1_555 1_555
N7 Co2 1_555 1_555
N8 N11 1_555 1_555
C23 N7 1_555 1_555
H15 C23 1_555 1_555
N11 C23 1_555 1_555
C24 N7 1_555 1_555
H16 C24 1_555 1_555
C25 N8 1_555 1_555
H17 C25 1_555 1_555
H18 C25 1_555 1_555
C26 C25 1_555 1_555
C27 C26 1_555 1_555
H19 C27 1_555 1_555
C28 C27 1_555 1_555
H20 C28 1_555 1_555
C29 C28 1_555 1_555
H21 C29 1_555 1_555
C30 C29 1_555 1_555
C31 C26 1_555 1_555
H22 C31 1_555 1_555
C32 C30 1_555 1_555
H23 C32 1_555 1_555
H24 C32 1_555 1_555
O9 Co2 1_555 1_555
N14 Co2 1_555 1_555
N8 C24 1_555 1_555
C30 C31 1_555 1_555
O7 C22 1_555 1_555
O8 C22 1_555 1_555
C22 C20 1_555 1_555
Co4 O8 1_555 1_555
H13 C16 1_555 1_555
O5_2 C18_2 1_555 1_555
O6_2 C18_2 1_555 1_555
O7_2 C22_2 1_555 1_555
O10 C22_2 1_555 1_555
C18_2 C19_2 1_555 1_555
C19_2 C20_2 1_555 1_555
C20_2 C16 1_555 1_555
C22_2 C20_2 1_555 1_555
Co6 O5_2 1_555 1_555
N7_2 Co6 1_555 1_555
N8_2 N11_2 1_555 1_555
C23_2 N7_2 1_555 1_555
H15_2 C23_2 1_555 1_555
N11_2 C23_2 1_555 1_555
C24_2 N7_2 1_555 1_555
H16_2 C24_2 1_555 1_555
C25_2 N8_2 1_555 1_555
H17_2 C25_2 1_555 1_555
H18_2 C25_2 1_555 1_555
C26_2 C25_2 1_555 1_555
C31_2 C26_2 1_555 1_555
H22_2 C31_2 1_555 1_555
C34_2 N14 1_555 1_555
H26_2 C34_2 1_555 1_555
N8_2 C24_2 1_555 1_555
Co4 O1_2 1_555 1_555
O1_2 C13_2 1_555 1_555
O2_2 C13_2 1_555 1_555
O3_2 C17_2 1_555 1_555
O9 C17_2 1_555 1_555
N1_2 Co4 1_555 1_555
N2_2 N5_2 1_555 1_555
C1_2 N1_2 1_555 1_555
H1_2 C1_2 1_555 1_555
N5_2 C1_2 1_555 1_555
C2_2 N1_2 1_555 1_555
H2_2 C2_2 1_555 1_555
C3_2 N2_2 1_555 1_555
H3_2 C3_2 1_555 1_555
H4_2 C3_2 1_555 1_555
C4_2 C3_2 1_555 1_555
C9_2 C4_2 1_555 1_555
H8_2 C9_2 1_555 1_555
C12_2 N13 1_555 1_555
H12_2 C12_2 1_555 1_555
C13_2 C14_2 1_555 1_555
C14_2 C15_2 1_555 1_555
C15_2 C17_2 1_555 1_555
C21 C15_2 1_555 1_555
H14 C21 1_555 1_555
N2_2 C2_2 1_555 1_555
H14_2 C21_2 1_555 1_555
H13_2 C16_2 1_555 1_555
N10_2 C32_2 1_555 1_555
H19_2 C27_2 1_555 1_555
C28_2 C27_2 1_555 1_555
H20_2 C28_2 1_555 1_555
C29_2 C28_2 1_555 1_555
H21_2 C29_2 1_555 1_555
C30_2 C29_2 1_555 1_555
C32_2 C30_2 1_555 1_555
H23_2 C32_2 1_555 1_555
H24_2 C32_2 1_555 1_555
N12_2 N10_2 1_555 1_555
C33_2 N12_2 1_555 1_555
H25_2 C33_2 1_555 1_555
N4_2 C10_2 1_555 1_555
H5_2 C5_2 1_555 1_555
C6_2 C5_2 1_555 1_555
H6_2 C6_2 1_555 1_555
C7_2 C6_2 1_555 1_555
H7_2 C7_2 1_555 1_555
C8_2 C7_2 1_555 1_555
C10_2 C8_2 1_555 1_555
H9_2 C10_2 1_555 1_555
H10_2 C10_2 1_555 1_555
N6_2 N4_2 1_555 1_555
C11_2 N6_2 1_555 1_555
H11_2 C11_2 1_555 1_555

#END
