
###############################################################################
#
# This file contains modified crystal structure data generated from the
# MOF subset of the Cambridge Structural Database (CSD) v542 
# hosted by the Cambridge Crystallographic Data Centre (CCDC).
#
# This work is licensed under the Creative Commons
# Attribution-NonCommercial-ShareAlike 4.0 International License.
# To view a copy of this license, visit
# http://creativecommons.org/licenses/by-nc-sa/4.0/
# or send a letter to
# Creative Commons, PO Box 1866, Mountain View, CA 94042, USA.
#
# CIF created using the CSD Python API on 22 February 2021
# The structure has been converted into the P1 space group
# The structure has a 3D framework
# The original CSD entry OHIFAP is in the monoclinic crystal system
# The framework has been calculated to contain at least 10.0% void space
# The void calculation uses a probe of radius 1.32A, grid spacing 0.4
# The framework is charged, counterions have been retained in the structure
#
###############################################################################

data_OHIFAP
_chemical_formula_moiety         '(C68 H48 Ag2 N28 O12 2-)n'
_symmetry_cell_setting           triclinic
_symmetry_space_group_name_H-M   'P 1'
_symmetry_Int_Tables_number      1
_space_group_name_Hall           'P 1'
loop_
_symmetry_equiv_pos_site_id
_symmetry_equiv_pos_as_xyz
1 x,y,z
_cell_length_a                   10.333(2)
_cell_length_b                   14.700(3)
_cell_length_c                   13.870(3)
_cell_angle_alpha                90
_cell_angle_beta                 102.580(3)
_cell_angle_gamma                90
_cell_volume                     2056.21
loop_
_atom_site_label
_atom_site_type_symbol
_atom_site_fract_x
_atom_site_fract_y
_atom_site_fract_z
Ag1 Ag 0.43805(3) 0.50924(2) 0.59161(2)
N1 N 0.5303(3) 0.3360(2) 0.4230(3)
N2 N 0.2991(3) 0.4422(2) 0.4500(2)
N3 N 0.1749(4) 0.4810(2) 0.4179(3)
N4 N 0.1766(3) 0.3459(2) 0.3492(2)
N6 N 0.0347(4) 0.1145(2) 0.1815(3)
C1 C 0.6352(5) 0.2798(3) 0.4367(4)
H1 H 0.7183 0.3048 0.4380
C2 C 0.6263(6) 0.1878(3) 0.4490(4)
H2 H 0.7015 0.1514 0.4569
C3 C 0.5054(6) 0.1500(3) 0.4494(4)
H3 H 0.4973 0.0876 0.4573
C4 C 0.3957(5) 0.2058(3) 0.4380(4)
H4 H 0.3129 0.1821 0.4399
C5 C 0.4119(4) 0.2983(3) 0.4234(3)
C6 C 0.2982(4) 0.3619(3) 0.4078(3)
C7 C 0.1036(4) 0.4230(3) 0.3578(3)
C13 C 0.1297(4) 0.2669(3) 0.2911(3)
C14 C 0.1977(4) 0.2316(3) 0.2249(3)
H9 H 0.2750 0.2589 0.2151
C15 C 0.1477(4) 0.1540(3) 0.1733(3)
H10 H 0.1955 0.1283 0.1307
C17 C 0.0138(5) 0.2261(3) 0.3029(4)
Ag3 Ag 0.56195(3) 0.49076(2) 0.40839(2)
N7 N 0.4697(3) 0.6640(2) 0.5770(3)
N8 N 0.2598(4) 0.5355(3) 0.6856(3)
N9 N 0.5347(4) 0.3855(2) 0.6815(3)
N5 N 0.7402(4) 0.4645(3) 0.3144(3)
C8 C 0.9648(4) 0.4360(3) 0.3042(3)
C9 C 0.9267(5) 0.4273(4) 0.2027(3)
H5 H 0.9893 0.4159 0.1651
C10 C 0.7945(5) 0.4358(4) 0.1583(3)
H6 H 0.7662 0.4297 0.0903
C11 C 0.7046(5) 0.4536(4) 0.2164(4)
H7 H 0.6152 0.4581 0.1860
C12 C 0.8681(4) 0.4555(3) 0.3568(3)
H8 H 0.8940 0.4626 0.4249
C16 C 0.9691(5) 0.1514(3) 0.2448(4)
H11 H 0.8889 0.1253 0.2501
H12 H 0.9675 0.2482 0.3484
Ag4 Ag 0.93805(3) 0.99076(2) 0.09161(2)
Ag1_2 Ag 0.06195(3) 0.00924(2) 0.90839(2)
N7_2 N 0.0303(3) 0.1640(2) 0.9230(3)
N8_2 N 0.2402(4) 0.0355(3) 0.8144(3)
N2_2 N 0.2009(3) 0.9422(2) 0.0500(2)
N3_2 N 0.3251(4) 0.9810(2) 0.0821(3)
N4_2 N 0.3234(3) 0.8459(2) 0.1508(2)
N5_2 N 0.7598(4) 0.9645(3) 0.1856(3)
N6_2 N 0.4653(4) 0.6145(2) 0.3185(3)
H3_2 H 0.0027 0.5876 0.0427
C4_2 C 0.1043(5) 0.7058(3) 0.0620(4)
H4_2 H 0.1871 0.6821 0.0601
C5_2 C 0.0881(4) 0.7983(3) 0.0766(3)
C6_2 C 0.2018(4) 0.8619(3) 0.0922(3)
C7_2 C 0.3964(4) 0.9230(3) 0.1422(3)
C8_2 C 0.5352(4) 0.9360(3) 0.1958(3)
C9_2 C 0.5733(5) 0.9273(4) 0.2973(3)
H5_2 H 0.5107 0.9159 0.3349
C10_2 C 0.7055(5) 0.9358(4) 0.3417(3)
H6_2 H 0.7338 0.9297 0.4097
C11_2 C 0.7954(5) 0.9536(4) 0.2836(4)
H7_2 H 0.8848 0.9581 0.3140
C12_2 C 0.6319(4) 0.9555(3) 0.1432(3)
H8_2 H 0.6060 0.9626 0.0751
C13_2 C 0.3703(4) 0.7669(3) 0.2089(3)
C14_2 C 0.3023(4) 0.7316(3) 0.2751(3)
H9_2 H 0.2250 0.7589 0.2849
C15_2 C 0.3523(4) 0.6540(3) 0.3267(3)
H10_2 H 0.3045 0.6283 0.3693
C16_2 C 0.5309(5) 0.6514(3) 0.2552(4)
H11_2 H 0.6111 0.6253 0.2499
C17_2 C 0.4862(5) 0.7261(3) 0.1971(4)
H12_2 H 0.5325 0.7482 0.1516
N1_2 N 0.9697(3) 0.8360(2) 0.0770(3)
C1_2 C 0.8648(5) 0.7798(3) 0.0633(4)
H1_2 H 0.7817 0.8048 0.0620
C2_2 C 0.8737(6) 0.6878(3) 0.0510(4)
H2_2 H 0.7985 0.6514 0.0431
C3_2 C 0.9946(6) 0.6500(3) 0.0506(4)
N9_2 N 0.9653(4) 0.8855(2) 0.8185(3)
C8_3 C 0.0352(4) 0.5640(3) 0.6958(3)
C9_3 C 0.0733(5) 0.5727(4) 0.7973(3)
H5_3 H 0.0107 0.5841 0.8349
C10_3 C 0.2055(5) 0.5642(4) 0.8417(3)
H6_3 H 0.2338 0.5703 0.9097
C11_3 C 0.2954(5) 0.5464(4) 0.7836(4)
H7_3 H 0.3848 0.5419 0.8140
C12_3 C 0.1319(4) 0.5445(3) 0.6432(3)
H8_3 H 0.1060 0.5374 0.5751
C16_3 C 0.0309(5) 0.8486(3) 0.7552(4)
H11_3 H 0.1111 0.8747 0.7499
H12_3 H 0.0325 0.7518 0.6516
N2_3 N 0.7009(3) 0.5578(2) 0.5500(2)
N3_3 N 0.8251(4) 0.5190(2) 0.5821(3)
N4_3 N 0.8234(3) 0.6541(2) 0.6508(2)
C1_3 C 0.3648(5) 0.7202(3) 0.5633(4)
H1_3 H 0.2817 0.6952 0.5620
C2_3 C 0.3737(6) 0.8122(3) 0.5510(4)
H2_3 H 0.2985 0.8486 0.5431
C3_3 C 0.4946(6) 0.8500(3) 0.5506(4)
H3_3 H 0.5027 0.9124 0.5427
C4_3 C 0.6043(5) 0.7942(3) 0.5620(4)
H4_3 H 0.6871 0.8179 0.5601
C5_3 C 0.5881(4) 0.7017(3) 0.5766(3)
C6_3 C 0.7018(4) 0.6381(3) 0.5922(3)
C7_3 C 0.8964(4) 0.5770(3) 0.6422(3)
C13_3 C 0.8703(4) 0.7331(3) 0.7089(3)
C14_3 C 0.8023(4) 0.7684(3) 0.7751(3)
H9_3 H 0.7250 0.7411 0.7849
C15_3 C 0.8523(4) 0.8460(3) 0.8267(3)
H10_3 H 0.8045 0.8717 0.8693
C17_3 C 0.9862(5) 0.7739(3) 0.6971(4)
C1_4 C 0.1352(5) 0.2202(3) 0.9367(4)
H1_4 H 0.2183 0.1952 0.9380
C2_4 C 0.1263(6) 0.3122(3) 0.9490(4)
H2_4 H 0.2015 0.3486 0.9569
C3_4 C 0.0054(6) 0.3500(3) 0.9494(4)
N2_4 N 0.7991(3) 0.0578(2) 0.9500(2)
N3_4 N 0.6749(4) 0.0190(2) 0.9179(3)
N4_4 N 0.6766(3) 0.1541(2) 0.8492(2)
H3_4 H 0.9973 0.4124 0.9573
C4_4 C 0.8957(5) 0.2942(3) 0.9380(4)
H4_4 H 0.8129 0.3179 0.9399
C5_4 C 0.9119(4) 0.2017(3) 0.9234(3)
C6_4 C 0.7982(4) 0.1381(3) 0.9078(3)
C7_4 C 0.6036(4) 0.0770(3) 0.8578(3)
C8_4 C 0.4648(4) 0.0640(3) 0.8042(3)
C9_4 C 0.4267(5) 0.0727(4) 0.7027(3)
H5_4 H 0.4893 0.0841 0.6651
C10_4 C 0.2945(5) 0.0642(4) 0.6583(3)
H6_4 H 0.2662 0.0703 0.5903
C11_4 C 0.2046(5) 0.0464(4) 0.7164(4)
H7_4 H 0.1152 0.0419 0.6860
C12_4 C 0.3681(4) 0.0445(3) 0.8568(3)
H8_4 H 0.3940 0.0374 0.9249
C13_4 C 0.6297(4) 0.2331(3) 0.7911(3)
C14_4 C 0.6977(4) 0.2684(3) 0.7249(3)
H9_4 H 0.7750 0.2411 0.7151
C15_4 C 0.6477(4) 0.3460(3) 0.6733(3)
H10_4 H 0.6955 0.3717 0.6307
C16_4 C 0.4691(5) 0.3486(3) 0.7448(4)
H11_4 H 0.3889 0.3747 0.7501
C17_4 C 0.5138(5) 0.2739(3) 0.8029(4)
H12_4 H 0.4675 0.2518 0.8484
N10 N 0.3019(5) 0.4679(4) 0.1420(4)
O1 O 0.3237(8) 0.5166(5) 0.0818(5)
O2 O 0.3746(6) 0.4107(4) 0.1866(5)
O3 O 0.2011(7) 0.4819(5) 0.1719(7)
O1_2 O 0.1763(8) 0.0166(5) 0.4182(5)
N10_2 N 0.1981(5) 0.9679(4) 0.3580(4)
O2_2 O 0.1254(6) 0.9107(4) 0.3134(5)
O3_2 O 0.2989(7) 0.9819(5) 0.3281(7)
N10_3 N 0.6981(5) 0.5321(4) 0.8580(4)
O1_3 O 0.6763(8) 0.4834(5) 0.9182(5)
O2_3 O 0.6254(6) 0.5893(4) 0.8134(5)
O3_3 O 0.7989(7) 0.5181(5) 0.8281(7)
N10_4 N 0.8019(5) 0.0321(4) 0.6420(4)
O2_4 O 0.8746(6) 0.0893(4) 0.6866(5)
O3_4 O 0.7011(7) 0.0181(5) 0.6719(7)
O1_4 O 0.8237(8) 0.9834(5) 0.5818(5)
loop_
_geom_bond_atom_site_label_1
_geom_bond_atom_site_label_2
_geom_bond_site_symmetry_1
_geom_bond_site_symmetry_2
Ag1 N2 1_555 1_555
N1 C1 1_555 1_555
N2 N3 1_555 1_555
N3 C7 1_555 1_555
N4 C6 1_555 1_555
N6 C15 1_555 1_555
C1 H1 1_555 1_555
C2 C1 1_555 1_555
H2 C2 1_555 1_555
C3 C2 1_555 1_555
H3 C3 1_555 1_555
C4 C3 1_555 1_555
H4 C4 1_555 1_555
C5 N1 1_555 1_555
C6 N2 1_555 1_555
C7 N4 1_555 1_555
C13 N4 1_555 1_555
C14 C13 1_555 1_555
H9 C14 1_555 1_555
C15 C14 1_555 1_555
H10 C15 1_555 1_555
C17 C13 1_555 1_555
Ag3 Ag1 1_555 1_555
N7 Ag1 1_555 1_555
N8 Ag1 1_555 1_555
N9 Ag1 1_555 1_555
N1 Ag3 1_555 1_555
C4 C5 1_555 1_555
C5 C6 1_555 1_555
N5 C11 1_555 1_555
C9 C8 1_555 1_555
H5 C9 1_555 1_555
C10 C9 1_555 1_555
H6 C10 1_555 1_555
C11 C10 1_555 1_555
H7 C11 1_555 1_555
C12 N5 1_555 1_555
H8 C12 1_555 1_555
H11 C16 1_555 1_555
Ag3 N5 1_555 1_555
C8 C12 1_555 1_555
N7_2 Ag1_2 1_555 1_555
N8_2 Ag1_2 1_555 1_555
N2_2 N3_2 1_555 1_555
N3_2 C7_2 1_555 1_555
N4_2 C6_2 1_555 1_555
N5_2 C11_2 1_555 1_555
N6_2 C15_2 1_555 1_555
H4_2 C4_2 1_555 1_555
C6_2 N2_2 1_555 1_555
C7_2 N4_2 1_555 1_555
C8_2 C7_2 1_555 1_555
C9_2 C8_2 1_555 1_555
H5_2 C9_2 1_555 1_555
C10_2 C9_2 1_555 1_555
H6_2 C10_2 1_555 1_555
C11_2 C10_2 1_555 1_555
H7_2 C11_2 1_555 1_555
C12_2 N5_2 1_555 1_555
H8_2 C12_2 1_555 1_555
C13_2 N4_2 1_555 1_555
C14_2 C13_2 1_555 1_555
H9_2 C14_2 1_555 1_555
C15_2 C14_2 1_555 1_555
H10_2 C15_2 1_555 1_555
C16_2 N6_2 1_555 1_555
H11_2 C16_2 1_555 1_555
C17_2 C13_2 1_555 1_555
H12_2 C17_2 1_555 1_555
Ag4 N5_2 1_555 1_555
Ag3 N6_2 1_555 1_555
C4_2 C5_2 1_555 1_555
C5_2 C6_2 1_555 1_555
C8_2 C12_2 1_555 1_555
C16_2 C17_2 1_555 1_555
N1_2 C1_2 1_555 1_555
C1_2 H1_2 1_555 1_555
C2_2 C1_2 1_555 1_555
H2_2 C2_2 1_555 1_555
C3_2 C2_2 1_555 1_555
N1_2 Ag4 1_555 1_555
N8 C11_3 1_555 1_555
C9_3 C8_3 1_555 1_555
H5_3 C9_3 1_555 1_555
C10_3 C9_3 1_555 1_555
H6_3 C10_3 1_555 1_555
C11_3 C10_3 1_555 1_555
H7_3 C11_3 1_555 1_555
C12_3 N8 1_555 1_555
H8_3 C12_3 1_555 1_555
H11_3 C16_3 1_555 1_555
C8_3 C12_3 1_555 1_555
Ag3 N2_3 1_555 1_555
N7 C1_3 1_555 1_555
N2_3 N3_3 1_555 1_555
N3_3 C7_3 1_555 1_555
N4_3 C6_3 1_555 1_555
N9_2 C15_3 1_555 1_555
C1_3 H1_3 1_555 1_555
C2_3 C1_3 1_555 1_555
H2_3 C2_3 1_555 1_555
C3_3 C2_3 1_555 1_555
H3_3 C3_3 1_555 1_555
C4_3 C3_3 1_555 1_555
H4_3 C4_3 1_555 1_555
C5_3 N7 1_555 1_555
C6_3 N2_3 1_555 1_555
C7_3 N4_3 1_555 1_555
C13_3 N4_3 1_555 1_555
C14_3 C13_3 1_555 1_555
H9_3 C14_3 1_555 1_555
C15_3 C14_3 1_555 1_555
H10_3 C15_3 1_555 1_555
C17_3 C13_3 1_555 1_555
C4_3 C5_3 1_555 1_555
C5_3 C6_3 1_555 1_555
N7_2 C1_4 1_555 1_555
C1_4 H1_4 1_555 1_555
C2_4 C1_4 1_555 1_555
H2_4 C2_4 1_555 1_555
C3_4 C2_4 1_555 1_555
N2_4 N3_4 1_555 1_555
N3_4 C7_4 1_555 1_555
N4_4 C6_4 1_555 1_555
N8_2 C11_4 1_555 1_555
N9 C15_4 1_555 1_555
H4_4 C4_4 1_555 1_555
C6_4 N2_4 1_555 1_555
C7_4 N4_4 1_555 1_555
C8_4 C7_4 1_555 1_555
C9_4 C8_4 1_555 1_555
H5_4 C9_4 1_555 1_555
C10_4 C9_4 1_555 1_555
H6_4 C10_4 1_555 1_555
C11_4 C10_4 1_555 1_555
H7_4 C11_4 1_555 1_555
C12_4 N8_2 1_555 1_555
H8_4 C12_4 1_555 1_555
C13_4 N4_4 1_555 1_555
C14_4 C13_4 1_555 1_555
H9_4 C14_4 1_555 1_555
C15_4 C14_4 1_555 1_555
H10_4 C15_4 1_555 1_555
C16_4 N9 1_555 1_555
H11_4 C16_4 1_555 1_555
C17_4 C13_4 1_555 1_555
H12_4 C17_4 1_555 1_555
C4_4 C5_4 1_555 1_555
C5_4 C6_4 1_555 1_555
C8_4 C12_4 1_555 1_555
C16_4 C17_4 1_555 1_555
N10 O1 1_555 1_555
O2 N10 1_555 1_555
O3 N10 1_555 1_555
O2_2 N10_2 1_555 1_555
O3_2 N10_2 1_555 1_555
N10_3 O1_3 1_555 1_555
O2_3 N10_3 1_555 1_555
O3_3 N10_3 1_555 1_555
O2_4 N10_4 1_555 1_555
O3_4 N10_4 1_555 1_555

#END
