
###############################################################################
#
# This file contains modified crystal structure data generated from the
# MOF subset of the Cambridge Structural Database (CSD) v542 
# hosted by the Cambridge Crystallographic Data Centre (CCDC).
#
# This work is licensed under the Creative Commons
# Attribution-NonCommercial-ShareAlike 4.0 International License.
# To view a copy of this license, visit
# http://creativecommons.org/licenses/by-nc-sa/4.0/
# or send a letter to
# Creative Commons, PO Box 1866, Mountain View, CA 94042, USA.
#
# CIF created using the CSD Python API on 22 February 2021
# The structure has been converted into the P1 space group
# The structure has a 3D framework
# The original CSD entry PEQHOK01 is in the tetragonal crystal system
# The framework has been calculated to contain at least 10.0% void space
# The void calculation uses a probe of radius 1.32A, grid spacing 0.4
#
###############################################################################

data_PEQHOK01
_chemical_formula_moiety         '(C96 H80 Co12 N64 O32)n'
_symmetry_cell_setting           triclinic
_symmetry_space_group_name_H-M   'P 1'
_symmetry_Int_Tables_number      1
_space_group_name_Hall           'P 1'
loop_
_symmetry_equiv_pos_site_id
_symmetry_equiv_pos_as_xyz
1 x,y,z
_cell_length_a                   12.5169(16)
_cell_length_b                   12.5169(16)
_cell_length_c                   24.973(4)
_cell_angle_alpha                90
_cell_angle_beta                 90
_cell_angle_gamma                90
_cell_volume                     3912.59
loop_
_atom_site_label
_atom_site_type_symbol
_atom_site_fract_x
_atom_site_fract_y
_atom_site_fract_z
Co1 Co 0.53839(3) 0.06893(3) 0.43759(2)
N1 N 0.3993(2) 0.0030(2) 0.44911(10)
O1 O 0.5109(2) 0.0916(2) 0.33131(14)
O2 O 0.6456(3) 0.0561(3) 0.38337(11)
N4 N 0.3042(2) 0.0357(3) 0.37050(12)
H2 H 0.2437 0.0369 0.3542
H3 H 0.3615 0.0535 0.3537
C2 C 0.3091(2) 0.0064(2) 0.42123(12)
C3 C 0.6071(4) 0.0747(3) 0.33844(16)
C4 C 0.6809(3) 0.0773(3) 0.29241(14)
C5 C 0.6431(3) 0.0780(4) 0.24185(16)
H4 H 0.5698 0.0789 0.2358
C6 C 0.7876(4) 0.0775(5) 0.30072(15)
H5 H 0.8142 0.0773 0.3355
O3 O 0.9891(2) 0.0916(2) 0.16869(14)
O4 O 0.8544(3) 0.0561(3) 0.11663(11)
C7 C 0.8929(4) 0.0747(3) 0.16156(16)
C8 C 0.8191(3) 0.0773(3) 0.20759(14)
C9 C 0.8569(3) 0.0780(4) 0.25815(16)
H6 H 0.9302 0.0789 0.2642
C10 C 0.7124(4) 0.0775(5) 0.19928(15)
H7 H 0.6858 0.0773 0.1645
Co2 Co 0.43107(3) 0.53839(3) 0.43759(2)
N5 N 0.4970(2) 0.3993(2) 0.44911(10)
N6 N 0.5226(2) 0.2263(2) 0.45097(10)
N7 N 0.5284(2) 0.3707(2) 0.49981(10)
C11 C 0.5418(3) 0.2698(2) 0.49870(11)
H8 H 0.5630 0.2303 0.5284
N8 N 0.4643(3) 0.3042(2) 0.37050(12)
H9 H 0.4631 0.2437 0.3542
H10 H 0.4465 0.3615 0.3537
C12 C 0.4936(2) 0.3091(2) 0.42123(12)
Co4 Co 0.96161(3) 0.06893(3) 0.06241(2)
Co6 Co 0.56893(3) 0.46161(3) 0.56241(2)
N9 N 0.2737(2) 0.5226(2) 0.45097(10)
O5 O 0.4439(3) 0.6456(3) 0.38337(11)
N10 N 0.6293(2) 0.0284(2) 0.50019(10)
N11 N 0.4716(2) 0.6293(2) 0.50019(10)
N2 N 0.2263(2) 0.9774(2) 0.45097(10)
N3 N 0.3707(2) 0.9716(2) 0.49981(10)
C1 C 0.2698(2) 0.9582(3) 0.49870(11)
H1 H 0.2303 0.9370 0.5284
Co3 Co 0.06893(3) 0.96161(3) 0.43759(2)
Co5 Co 0.46161(3) 0.93107(3) 0.56241(2)
N1_2 N 0.1007(2) 0.4970(2) 0.44911(10)
N3_2 N 0.1293(2) 0.5284(2) 0.49981(10)
C1_2 C 0.2302(2) 0.5418(3) 0.49870(11)
H1_2 H 0.2697 0.5630 0.5284
N4_2 N 0.1958(2) 0.4643(3) 0.37050(12)
H2_2 H 0.2563 0.4631 0.3542
H3_2 H 0.1385 0.4465 0.3537
C2_2 C 0.1909(2) 0.4936(2) 0.42123(12)
N5_2 N 0.0030(2) 0.1007(2) 0.44911(10)
N8_2 N 0.0357(3) 0.1958(2) 0.37050(12)
H9_2 H 0.0369 0.2563 0.3542
H10_2 H 0.0535 0.1385 0.3537
C12_2 C 0.0064(2) 0.1909(2) 0.42123(12)
Co5_2 Co 0.03839(3) 0.56893(3) 0.56241(2)
O5_2 O 0.0561(3) 0.8544(3) 0.38337(11)
N11_2 N 0.0284(2) 0.8707(2) 0.50019(10)
Co1_2 Co 0.96161(3) 0.43107(3) 0.43759(2)
O1_2 O 0.9891(2) 0.4084(2) 0.33131(14)
O2_2 O 0.8544(3) 0.4439(3) 0.38337(11)
C3_2 C 0.8929(4) 0.4253(3) 0.33844(16)
C4_2 C 0.8191(3) 0.4227(3) 0.29241(14)
C5_2 C 0.8569(3) 0.4220(4) 0.24185(16)
H4_2 H 0.9302 0.4211 0.2358
C6_2 C 0.7124(4) 0.4225(5) 0.30072(15)
H5_2 H 0.6858 0.4227 0.3355
O3_2 O 0.5109(2) 0.4084(2) 0.16869(14)
O4_2 O 0.6456(3) 0.4439(3) 0.11663(11)
C7_2 C 0.6071(4) 0.4253(3) 0.16156(16)
C8_2 C 0.6809(3) 0.4227(3) 0.20759(14)
C9_2 C 0.6431(3) 0.4220(4) 0.25815(16)
H6_2 H 0.5698 0.4211 0.2642
C10_2 C 0.7876(4) 0.4225(5) 0.19928(15)
H7_2 H 0.8142 0.4227 0.1645
N6_2 N 0.9774(2) 0.2737(2) 0.45097(10)
N7_2 N 0.9716(2) 0.1293(2) 0.49981(10)
C11_2 C 0.9582(3) 0.2302(2) 0.49870(11)
H8_2 H 0.9370 0.2697 0.5284
Co4_2 Co 0.53839(3) 0.43107(3) 0.06241(2)
Co6_2 Co 0.93107(3) 0.03839(3) 0.56241(2)
N10_2 N 0.8707(2) 0.4716(2) 0.50019(10)
O1_3 O 0.4084(2) 0.5109(2) 0.33131(14)
C3_3 C 0.4253(3) 0.6071(4) 0.33844(16)
C4_3 C 0.4227(3) 0.6809(3) 0.29241(14)
C5_3 C 0.4220(4) 0.6431(3) 0.24185(16)
H4_3 H 0.4211 0.5698 0.2358
C6_3 C 0.4225(5) 0.7876(4) 0.30072(15)
H5_3 H 0.4227 0.8142 0.3355
O3_3 O 0.4084(2) 0.9891(2) 0.16869(14)
O4_3 O 0.4439(3) 0.8544(3) 0.11663(11)
C7_3 C 0.4253(3) 0.8929(4) 0.16156(16)
C8_3 C 0.4227(3) 0.8191(3) 0.20759(14)
C9_3 C 0.4220(4) 0.8569(3) 0.25815(16)
H6_3 H 0.4211 0.9302 0.2642
C10_3 C 0.4225(5) 0.7124(4) 0.19928(15)
H7_3 H 0.4227 0.6858 0.1645
Co4_3 Co 0.43107(3) 0.96161(3) 0.06241(2)
O1_4 O 0.0916(2) 0.9891(2) 0.33131(14)
C3_4 C 0.0747(3) 0.8929(4) 0.33844(16)
C4_4 C 0.0773(3) 0.8191(3) 0.29241(14)
C5_4 C 0.0780(4) 0.8569(3) 0.24185(16)
H4_4 H 0.0789 0.9302 0.2358
C6_4 C 0.0775(5) 0.7124(4) 0.30072(15)
H5_4 H 0.0773 0.6858 0.3355
O3_4 O 0.0916(2) 0.5109(2) 0.16869(14)
O4_4 O 0.0561(3) 0.6456(3) 0.11663(11)
C7_4 C 0.0747(3) 0.6071(4) 0.16156(16)
C8_4 C 0.0773(3) 0.6809(3) 0.20759(14)
C9_4 C 0.0780(4) 0.6431(3) 0.25815(16)
H6_4 H 0.0789 0.5698 0.2642
C10_4 C 0.0775(5) 0.7876(4) 0.19928(15)
H7_4 H 0.0773 0.8142 0.1645
Co4_4 Co 0.06893(3) 0.53839(3) 0.06241(2)
N1_3 N 0.1007(2) 0.0030(2) 0.05089(10)
N4_3 N 0.1958(2) 0.0357(3) 0.12950(12)
H2_3 H 0.2563 0.0369 0.1458
H3_3 H 0.1385 0.0535 0.1463
C2_3 C 0.1909(2) 0.0064(2) 0.07877(12)
N5_3 N 0.0030(2) 0.3993(2) 0.05089(10)
N8_3 N 0.0357(3) 0.3042(2) 0.12950(12)
H9_3 H 0.0369 0.2437 0.1458
H10_3 H 0.0535 0.3615 0.1463
C12_3 C 0.0064(2) 0.3091(2) 0.07877(12)
N9_2 N 0.2263(2) 0.5226(2) 0.04903(10)
N11_3 N 0.0284(2) 0.6293(2) 0.99981(10)
N2_2 N 0.2737(2) 0.9774(2) 0.04903(10)
N3_3 N 0.1293(2) 0.9716(2) 0.00019(10)
C1_3 C 0.2302(2) 0.9582(3) 0.00130(11)
H1_3 H 0.2697 0.9370 0.9716
Co5_3 Co 0.03839(3) 0.93107(3) 0.93759(2)
N6_3 N 0.9774(2) 0.2263(2) 0.04903(10)
N7_3 N 0.9716(2) 0.3707(2) 0.00019(10)
C11_3 C 0.9582(3) 0.2698(2) 0.00130(11)
H8_3 H 0.9370 0.2303 0.9716
Co6_3 Co 0.93107(3) 0.46161(3) 0.93759(2)
N10_3 N 0.8707(2) 0.0284(2) 0.99981(10)
N1_4 N 0.3993(2) 0.4970(2) 0.05089(10)
N3_4 N 0.3707(2) 0.5284(2) 0.00019(10)
C1_4 C 0.2698(2) 0.5418(3) 0.00130(11)
N4_4 N 0.3042(2) 0.4643(3) 0.12950(12)
H2_4 H 0.2437 0.4631 0.1458
H3_4 H 0.3615 0.4465 0.1463
C2_4 C 0.3091(2) 0.4936(2) 0.07877(12)
N5_4 N 0.4970(2) 0.1007(2) 0.05089(10)
N6_4 N 0.5226(2) 0.2737(2) 0.04903(10)
N7_4 N 0.5284(2) 0.1293(2) 0.00019(10)
C11_4 C 0.5418(3) 0.2302(2) 0.00130(11)
N8_4 N 0.4643(3) 0.1958(2) 0.12950(12)
H9_4 H 0.4631 0.2563 0.1458
H10_4 H 0.4465 0.1385 0.1463
C12_4 C 0.4936(2) 0.1909(2) 0.07877(12)
H1_4 H 0.2303 0.5630 0.9716
H8_4 H 0.5630 0.2697 0.9716
Co5_4 Co 0.46161(3) 0.56893(3) 0.93759(2)
Co6_4 Co 0.56893(3) 0.03839(3) 0.93759(2)
N10_4 N 0.6293(2) 0.4716(2) 0.99981(10)
N11_4 N 0.4716(2) 0.8707(2) 0.99981(10)
N2_3 N 0.7737(2) 0.0226(2) 0.54903(10)
C1_5 C 0.7302(2) 0.0418(3) 0.50130(11)
H1_5 H 0.7697 0.0630 0.4716
N1_5 N 0.6007(2) 0.9970(2) 0.55089(10)
O1_5 O 0.4891(2) 0.9084(2) 0.66869(14)
O2_3 O 0.3544(3) 0.9439(3) 0.61663(11)
N4_5 N 0.6958(2) 0.9643(3) 0.62950(12)
H2_5 H 0.7563 0.9631 0.6458
H3_5 H 0.6385 0.9465 0.6463
C2_5 C 0.6909(2) 0.9936(2) 0.57877(12)
C3_5 C 0.3929(4) 0.9253(3) 0.66156(16)
C4_5 C 0.3191(3) 0.9227(3) 0.70759(14)
C5_5 C 0.3569(3) 0.9220(4) 0.75815(16)
H4_5 H 0.4302 0.9211 0.7642
C6_5 C 0.2124(4) 0.9225(5) 0.69928(15)
H5_5 H 0.1858 0.9227 0.6645
O3_5 O 0.0109(2) 0.9084(2) 0.83131(14)
O4_5 O 0.1456(3) 0.9439(3) 0.88337(11)
C7_5 C 0.1071(4) 0.9253(3) 0.83844(16)
C8_5 C 0.1809(3) 0.9227(3) 0.79241(14)
C9_5 C 0.1431(3) 0.9220(4) 0.74185(16)
H6_5 H 0.0698 0.9211 0.7358
C10_5 C 0.2876(4) 0.9225(5) 0.80072(15)
H7_5 H 0.3142 0.9227 0.8355
N5_5 N 0.5030(2) 0.6007(2) 0.55089(10)
N6_5 N 0.4774(2) 0.7737(2) 0.54903(10)
C11_5 C 0.4582(3) 0.7302(2) 0.50130(11)
H8_5 H 0.4370 0.7697 0.4716
N8_5 N 0.5357(3) 0.6958(2) 0.62950(12)
H9_5 H 0.5369 0.7563 0.6458
H10_5 H 0.5535 0.6385 0.6463
C12_5 C 0.5064(2) 0.6909(2) 0.57877(12)
N9_3 N 0.7263(2) 0.4774(2) 0.54903(10)
O5_3 O 0.5561(3) 0.3544(3) 0.61663(11)
O1_6 O 0.0109(2) 0.5916(2) 0.66869(14)
O2_4 O 0.1456(3) 0.5561(3) 0.61663(11)
C3_6 C 0.1071(4) 0.5747(3) 0.66156(16)
C4_6 C 0.1809(3) 0.5773(3) 0.70759(14)
C5_6 C 0.1431(3) 0.5780(4) 0.75815(16)
H4_6 H 0.0698 0.5789 0.7642
C6_6 C 0.2876(4) 0.5775(5) 0.69928(15)
H5_6 H 0.3142 0.5773 0.6645
O3_6 O 0.4891(2) 0.5916(2) 0.83131(14)
O4_6 O 0.3544(3) 0.5561(3) 0.88337(11)
C7_6 C 0.3929(4) 0.5747(3) 0.83844(16)
C8_6 C 0.3191(3) 0.5773(3) 0.79241(14)
C9_6 C 0.3569(3) 0.5780(4) 0.74185(16)
H6_6 H 0.4302 0.5789 0.7358
C10_6 C 0.2124(4) 0.5775(5) 0.80072(15)
H7_6 H 0.1858 0.5773 0.8355
N6_6 N 0.0226(2) 0.7263(2) 0.54903(10)
C11_6 C 0.0418(3) 0.7698(2) 0.50130(11)
H8_6 H 0.0630 0.7303 0.4716
O5_4 O 0.9439(3) 0.1456(3) 0.61663(11)
N1_6 N 0.8993(2) 0.5030(2) 0.55089(10)
C1_6 C 0.7698(2) 0.4582(3) 0.50130(11)
H1_6 H 0.7303 0.4370 0.4716
N4_6 N 0.8042(2) 0.5357(3) 0.62950(12)
H2_6 H 0.7437 0.5369 0.6458
H3_6 H 0.8615 0.5535 0.6463
C2_6 C 0.8091(2) 0.5064(2) 0.57877(12)
N5_6 N 0.9970(2) 0.8993(2) 0.55089(10)
N8_6 N 0.9643(3) 0.8042(2) 0.62950(12)
H9_6 H 0.9631 0.7437 0.6458
H10_6 H 0.9465 0.8615 0.6463
C12_6 C 0.9936(2) 0.8091(2) 0.57877(12)
O1_7 O 0.5916(2) 0.4891(2) 0.66869(14)
C3_7 C 0.5747(3) 0.3929(4) 0.66156(16)
C4_7 C 0.5773(3) 0.3191(3) 0.70759(14)
C5_7 C 0.5780(4) 0.3569(3) 0.75815(16)
H4_7 H 0.5789 0.4302 0.7642
C6_7 C 0.5775(5) 0.2124(4) 0.69928(15)
H5_7 H 0.5773 0.1858 0.6645
O3_7 O 0.5916(2) 0.0109(2) 0.83131(14)
O4_7 O 0.5561(3) 0.1456(3) 0.88337(11)
C7_7 C 0.5747(3) 0.1071(4) 0.83844(16)
C8_7 C 0.5773(3) 0.1809(3) 0.79241(14)
C9_7 C 0.5780(4) 0.1431(3) 0.74185(16)
H6_7 H 0.5789 0.0698 0.7358
C10_7 C 0.5775(5) 0.2876(4) 0.80072(15)
H7_7 H 0.5773 0.3142 0.8355
O1_8 O 0.9084(2) 0.0109(2) 0.66869(14)
C3_8 C 0.9253(3) 0.1071(4) 0.66156(16)
C4_8 C 0.9227(3) 0.1809(3) 0.70759(14)
C5_8 C 0.9220(4) 0.1431(3) 0.75815(16)
H4_8 H 0.9211 0.0698 0.7642
C6_8 C 0.9225(5) 0.2876(4) 0.69928(15)
H5_8 H 0.9227 0.3142 0.6645
O3_8 O 0.9084(2) 0.4891(2) 0.83131(14)
O4_8 O 0.9439(3) 0.3544(3) 0.88337(11)
C7_8 C 0.9253(3) 0.3929(4) 0.83844(16)
C8_8 C 0.9227(3) 0.3191(3) 0.79241(14)
C9_8 C 0.9220(4) 0.3569(3) 0.74185(16)
H6_8 H 0.9211 0.4302 0.7358
C10_8 C 0.9225(5) 0.2124(4) 0.80072(15)
H7_8 H 0.9227 0.1858 0.8355
H8_7 H 0.0630 0.7697 0.0284
N6_7 N 0.0226(2) 0.7737(2) 0.95097(10)
C11_7 C 0.0418(3) 0.7302(2) 0.99870(11)
H1_7 H 0.7303 0.0630 0.0284
N2_4 N 0.7263(2) 0.0226(2) 0.95097(10)
C1_7 C 0.7698(2) 0.0418(3) 0.99870(11)
N1_7 N 0.8993(2) 0.9970(2) 0.94911(10)
N4_7 N 0.8042(2) 0.9643(3) 0.87050(12)
H2_7 H 0.7437 0.9631 0.8542
H3_7 H 0.8615 0.9465 0.8537
C2_7 C 0.8091(2) 0.9936(2) 0.92123(12)
N5_7 N 0.9970(2) 0.6007(2) 0.94911(10)
N8_7 N 0.9643(3) 0.6958(2) 0.87050(12)
H9_7 H 0.9631 0.7563 0.8542
H10_7 H 0.9465 0.6385 0.8537
C12_7 C 0.9936(2) 0.6909(2) 0.92123(12)
N9_4 N 0.7737(2) 0.4774(2) 0.95097(10)
H1_8 H 0.7697 0.4370 0.0284
H8_8 H 0.4370 0.7303 0.0284
N1_8 N 0.6007(2) 0.5030(2) 0.94911(10)
C1_8 C 0.7302(2) 0.4582(3) 0.99870(11)
N4_8 N 0.6958(2) 0.5357(3) 0.87050(12)
H2_8 H 0.7563 0.5369 0.8542
H3_8 H 0.6385 0.5535 0.8537
C2_8 C 0.6909(2) 0.5064(2) 0.92123(12)
N5_8 N 0.5030(2) 0.8993(2) 0.94911(10)
N6_8 N 0.4774(2) 0.7263(2) 0.95097(10)
C11_8 C 0.4582(3) 0.7698(2) 0.99870(11)
N8_8 N 0.5357(3) 0.8042(2) 0.87050(12)
H9_8 H 0.5369 0.7437 0.8542
H10_8 H 0.5535 0.8615 0.8537
C12_8 C 0.5064(2) 0.8091(2) 0.92123(12)
loop_
_geom_bond_atom_site_label_1
_geom_bond_atom_site_label_2
_geom_bond_site_symmetry_1
_geom_bond_site_symmetry_2
Co1 N1 1_555 1_555
O1 C3 1_555 1_555
O2 Co1 1_555 1_555
N4 H2 1_555 1_555
H3 N4 1_555 1_555
C2 N1 1_555 1_555
C3 O2 1_555 1_555
C4 C3 1_555 1_555
C5 C4 1_555 1_555
H4 C5 1_555 1_555
C6 C4 1_555 1_555
H5 C6 1_555 1_555
O3 C7 1_555 1_555
O4 C7 1_555 1_555
C7 C8 1_555 1_555
C8 C9 1_555 1_555
C9 C6 1_555 1_555
H6 C9 1_555 1_555
C10 C5 1_555 1_555
H7 C10 1_555 1_555
Co2 N5 1_555 1_555
N5 N7 1_555 1_555
N6 Co1 1_555 1_555
N7 C11 1_555 1_555
C11 N6 1_555 1_555
H8 C11 1_555 1_555
N8 H9 1_555 1_555
H10 N8 1_555 1_555
C12 N5 1_555 1_555
Co4 O4 1_555 1_555
Co6 N7 1_555 1_555
N9 Co2 1_555 1_555
O5 Co2 1_555 1_555
N10 Co1 1_555 1_555
N11 Co2 1_555 1_555
N4 C2 1_555 1_555
C8 C10 1_555 1_555
N6 C12 1_555 1_555
N8 C12 1_555 1_555
N2 C1 1_555 1_555
N3 C1 1_555 1_555
C1 H1 1_555 1_555
Co3 N2 1_555 1_555
Co5 N3 1_555 1_555
N1_2 N3_2 1_555 1_555
N9 C1_2 1_555 1_555
N3_2 C1_2 1_555 1_555
C1_2 H1_2 1_555 1_555
N4_2 H2_2 1_555 1_555
H3_2 N4_2 1_555 1_555
C2_2 N1_2 1_555 1_555
N8_2 H9_2 1_555 1_555
H10_2 N8_2 1_555 1_555
C12_2 N5_2 1_555 1_555
Co5_2 N3_2 1_555 1_555
N9 C2_2 1_555 1_555
N4_2 C2_2 1_555 1_555
N8_2 C12_2 1_555 1_555
O5_2 Co3 1_555 1_555
N11_2 Co3 1_555 1_555
O1_2 C3_2 1_555 1_555
O2_2 Co1_2 1_555 1_555
C3_2 O2_2 1_555 1_555
C4_2 C3_2 1_555 1_555
C5_2 C4_2 1_555 1_555
H4_2 C5_2 1_555 1_555
C6_2 C4_2 1_555 1_555
H5_2 C6_2 1_555 1_555
O3_2 C7_2 1_555 1_555
O4_2 C7_2 1_555 1_555
C7_2 C8_2 1_555 1_555
C8_2 C9_2 1_555 1_555
C9_2 C6_2 1_555 1_555
H6_2 C9_2 1_555 1_555
C10_2 C5_2 1_555 1_555
H7_2 C10_2 1_555 1_555
N6_2 Co1_2 1_555 1_555
N7_2 C11_2 1_555 1_555
C11_2 N6_2 1_555 1_555
H8_2 C11_2 1_555 1_555
Co4_2 O4_2 1_555 1_555
Co6_2 N7_2 1_555 1_555
N10_2 Co1_2 1_555 1_555
C8_2 C10_2 1_555 1_555
O1_3 C3_3 1_555 1_555
C3_3 O5 1_555 1_555
C4_3 C3_3 1_555 1_555
C5_3 C4_3 1_555 1_555
H4_3 C5_3 1_555 1_555
C6_3 C4_3 1_555 1_555
H5_3 C6_3 1_555 1_555
O3_3 C7_3 1_555 1_555
O4_3 C7_3 1_555 1_555
C7_3 C8_3 1_555 1_555
C8_3 C9_3 1_555 1_555
C9_3 C6_3 1_555 1_555
H6_3 C9_3 1_555 1_555
C10_3 C5_3 1_555 1_555
H7_3 C10_3 1_555 1_555
Co4_3 O4_3 1_555 1_555
C8_3 C10_3 1_555 1_555
O1_4 C3_4 1_555 1_555
C3_4 O5_2 1_555 1_555
C4_4 C3_4 1_555 1_555
C5_4 C4_4 1_555 1_555
H4_4 C5_4 1_555 1_555
C6_4 C4_4 1_555 1_555
H5_4 C6_4 1_555 1_555
O3_4 C7_4 1_555 1_555
O4_4 C7_4 1_555 1_555
C7_4 C8_4 1_555 1_555
C8_4 C9_4 1_555 1_555
C9_4 C6_4 1_555 1_555
H6_4 C9_4 1_555 1_555
C10_4 C5_4 1_555 1_555
H7_4 C10_4 1_555 1_555
Co4_4 O4_4 1_555 1_555
C8_4 C10_4 1_555 1_555
N4_3 H2_3 1_555 1_555
H3_3 N4_3 1_555 1_555
C2_3 N1_3 1_555 1_555
Co4_4 N5_3 1_555 1_555
N8_3 H9_3 1_555 1_555
H10_3 N8_3 1_555 1_555
C12_3 N5_3 1_555 1_555
N9_2 Co4_4 1_555 1_555
N4_3 C2_3 1_555 1_555
N8_3 C12_3 1_555 1_555
N2_2 C1_3 1_555 1_555
N3_3 C1_3 1_555 1_555
Co4_3 N2_2 1_555 1_555
N6_3 Co4 1_555 1_555
N7_3 C11_3 1_555 1_555
C11_3 N6_3 1_555 1_555
Co4_2 N1_4 1_555 1_555
N1_4 N3_4 1_555 1_555
N9_2 C1_4 1_555 1_555
N3_4 C1_4 1_555 1_555
N4_4 H2_4 1_555 1_555
H3_4 N4_4 1_555 1_555
C2_4 N1_4 1_555 1_555
N5_4 N7_4 1_555 1_555
N6_4 Co4_2 1_555 1_555
N7_4 C11_4 1_555 1_555
C11_4 N6_4 1_555 1_555
N8_4 H9_4 1_555 1_555
H10_4 N8_4 1_555 1_555
C12_4 N5_4 1_555 1_555
N9_2 C2_4 1_555 1_555
N4_4 C2_4 1_555 1_555
N6_4 C12_4 1_555 1_555
N8_4 C12_4 1_555 1_555
N2_3 C1_5 1_555 1_555
N10 C1_5 1_555 1_555
C1_5 H1_5 1_555 1_555
Co6_2 N2_3 1_555 1_555
Co5 N1_5 1_555 1_555
O1_5 C3_5 1_555 1_555
O2_3 Co5 1_555 1_555
N4_5 H2_5 1_555 1_555
H3_5 N4_5 1_555 1_555
C2_5 N1_5 1_555 1_555
C3_5 O2_3 1_555 1_555
C4_5 C3_5 1_555 1_555
C5_5 C4_5 1_555 1_555
H4_5 C5_5 1_555 1_555
C6_5 C4_5 1_555 1_555
H5_5 C6_5 1_555 1_555
O3_5 C7_5 1_555 1_555
O4_5 C7_5 1_555 1_555
C7_5 C8_5 1_555 1_555
C8_5 C9_5 1_555 1_555
C9_5 C6_5 1_555 1_555
H6_5 C9_5 1_555 1_555
C10_5 C5_5 1_555 1_555
H7_5 C10_5 1_555 1_555
Co6 N5_5 1_555 1_555
N5_5 N11 1_555 1_555
N6_5 Co5 1_555 1_555
N11 C11_5 1_555 1_555
C11_5 N6_5 1_555 1_555
H8_5 C11_5 1_555 1_555
N8_5 H9_5 1_555 1_555
H10_5 N8_5 1_555 1_555
C12_5 N5_5 1_555 1_555
Co5_3 O4_5 1_555 1_555
N9_3 Co6 1_555 1_555
O5_3 Co6 1_555 1_555
N4_5 C2_5 1_555 1_555
C8_5 C10_5 1_555 1_555
N6_5 C12_5 1_555 1_555
N8_5 C12_5 1_555 1_555
O1_6 C3_6 1_555 1_555
O2_4 Co5_2 1_555 1_555
C3_6 O2_4 1_555 1_555
C4_6 C3_6 1_555 1_555
C5_6 C4_6 1_555 1_555
H4_6 C5_6 1_555 1_555
C6_6 C4_6 1_555 1_555
H5_6 C6_6 1_555 1_555
O3_6 C7_6 1_555 1_555
O4_6 C7_6 1_555 1_555
C7_6 C8_6 1_555 1_555
C8_6 C9_6 1_555 1_555
C9_6 C6_6 1_555 1_555
H6_6 C9_6 1_555 1_555
C10_6 C5_6 1_555 1_555
H7_6 C10_6 1_555 1_555
N6_6 Co5_2 1_555 1_555
N11_2 C11_6 1_555 1_555
C11_6 N6_6 1_555 1_555
H8_6 C11_6 1_555 1_555
Co5_4 O4_6 1_555 1_555
C8_6 C10_6 1_555 1_555
O5_4 Co6_2 1_555 1_555
N1_6 N10_2 1_555 1_555
N9_3 C1_6 1_555 1_555
N10_2 C1_6 1_555 1_555
C1_6 H1_6 1_555 1_555
N4_6 H2_6 1_555 1_555
H3_6 N4_6 1_555 1_555
C2_6 N1_6 1_555 1_555
N8_6 H9_6 1_555 1_555
H10_6 N8_6 1_555 1_555
C12_6 N5_6 1_555 1_555
N9_3 C2_6 1_555 1_555
N4_6 C2_6 1_555 1_555
N8_6 C12_6 1_555 1_555
O1_7 C3_7 1_555 1_555
C3_7 O5_3 1_555 1_555
C4_7 C3_7 1_555 1_555
C5_7 C4_7 1_555 1_555
H4_7 C5_7 1_555 1_555
C6_7 C4_7 1_555 1_555
H5_7 C6_7 1_555 1_555
O3_7 C7_7 1_555 1_555
O4_7 C7_7 1_555 1_555
C7_7 C8_7 1_555 1_555
C8_7 C9_7 1_555 1_555
C9_7 C6_7 1_555 1_555
H6_7 C9_7 1_555 1_555
C10_7 C5_7 1_555 1_555
H7_7 C10_7 1_555 1_555
Co6_4 O4_7 1_555 1_555
C8_7 C10_7 1_555 1_555
O1_8 C3_8 1_555 1_555
C3_8 O5_4 1_555 1_555
C4_8 C3_8 1_555 1_555
C5_8 C4_8 1_555 1_555
H4_8 C5_8 1_555 1_555
C6_8 C4_8 1_555 1_555
H5_8 C6_8 1_555 1_555
O3_8 C7_8 1_555 1_555
O4_8 C7_8 1_555 1_555
C7_8 C8_8 1_555 1_555
C8_8 C9_8 1_555 1_555
C9_8 C6_8 1_555 1_555
H6_8 C9_8 1_555 1_555
C10_8 C5_8 1_555 1_555
H7_8 C10_8 1_555 1_555
Co6_3 O4_8 1_555 1_555
C8_8 C10_8 1_555 1_555
N6_7 Co5_3 1_555 1_555
N11_3 C11_7 1_555 1_555
C11_7 N6_7 1_555 1_555
N2_4 C1_7 1_555 1_555
N10_3 C1_7 1_555 1_555
Co6_4 N2_4 1_555 1_555
N4_7 H2_7 1_555 1_555
H3_7 N4_7 1_555 1_555
C2_7 N1_7 1_555 1_555
Co6_3 N5_7 1_555 1_555
N8_7 H9_7 1_555 1_555
H10_7 N8_7 1_555 1_555
C12_7 N5_7 1_555 1_555
N9_4 Co6_3 1_555 1_555
N4_7 C2_7 1_555 1_555
N8_7 C12_7 1_555 1_555
Co5_4 N1_8 1_555 1_555
N1_8 N10_4 1_555 1_555
N9_4 C1_8 1_555 1_555
N10_4 C1_8 1_555 1_555
N4_8 H2_8 1_555 1_555
H3_8 N4_8 1_555 1_555
C2_8 N1_8 1_555 1_555
N5_8 N11_4 1_555 1_555
N6_8 Co5_4 1_555 1_555
N11_4 C11_8 1_555 1_555
C11_8 N6_8 1_555 1_555
N8_8 H9_8 1_555 1_555
H10_8 N8_8 1_555 1_555
C12_8 N5_8 1_555 1_555
N9_4 C2_8 1_555 1_555
N4_8 C2_8 1_555 1_555
N6_8 C12_8 1_555 1_555
N8_8 C12_8 1_555 1_555

#END
