
###############################################################################
#
# This file contains modified crystal structure data generated from the
# MOF subset of the Cambridge Structural Database (CSD) v542 
# hosted by the Cambridge Crystallographic Data Centre (CCDC).
#
# This work is licensed under the Creative Commons
# Attribution-NonCommercial-ShareAlike 4.0 International License.
# To view a copy of this license, visit
# http://creativecommons.org/licenses/by-nc-sa/4.0/
# or send a letter to
# Creative Commons, PO Box 1866, Mountain View, CA 94042, USA.
#
# CIF created using the CSD Python API on 22 February 2021
# The structure has been converted into the P1 space group
# The structure has a 3D framework
# The original CSD entry PUFGOP is in the monoclinic crystal system
# The original CSD entry PUFGOP is in a Sohncke space group
# The framework has been calculated to contain at least 10.0% void space
# The void calculation uses a probe of radius 1.32A, grid spacing 0.4
#
###############################################################################

data_PUFGOP
_chemical_formula_moiety         '(C58 H40 Co4 O22)n'
_symmetry_cell_setting           triclinic
_symmetry_space_group_name_H-M   'P 1'
_symmetry_Int_Tables_number      1
_space_group_name_Hall           'P 1'
loop_
_symmetry_equiv_pos_site_id
_symmetry_equiv_pos_as_xyz
1 x,y,z
_cell_length_a                   9.9638(6)
_cell_length_b                   17.024(5)
_cell_length_c                   18.5358(6)
_cell_angle_alpha                90
_cell_angle_beta                 94.962(3)
_cell_angle_gamma                90
_cell_volume                     3132.33
loop_
_atom_site_label
_atom_site_type_symbol
_atom_site_fract_x
_atom_site_fract_y
_atom_site_fract_z
O7 O 0.3664(5) 0.1827(3) 0.2627(2)
H5 H 0.0341 0.3172 0.4993
O11 O 0.2902(4) 0.2145(4) 0.3660(2)
C3 C 0.0294(6) 0.1996(4) 0.3100(3)
H7 H 0.0465 0.2109 0.3590
C7 C 0.0327(8) 0.1912(5) 0.0361(4)
H9 H 0.1145 0.2127 0.0544
C21 C 0.1327(6) 0.1892(4) 0.2655(3)
C22 C 0.1101(6) 0.1773(4) 0.1934(3)
H16 H 0.1825 0.1720 0.1652
C23 C 0.2732(6) 0.1944(4) 0.2985(4)
Co6 Co 0.51126(8) 0.20784(5) 0.35453(4)
Co1 Co 0.76561(8) 0.26599(6) 0.48969(4)
O1 O 0.6745(4) 0.1875(3) 0.2977(2)
O2 O 0.8164(5) 0.2243(3) 0.3883(3)
O5 O 0.8868(6) 0.1657(3) 0.5352(3)
O6 O 0.7404(5) 0.3025(3) 0.5991(2)
O8 O 0.9473(6) 0.3344(4) 0.4938(3)
C1 C 0.7905(6) 0.2022(4) 0.3260(3)
C2 C 0.9005(6) 0.1925(4) 0.2781(3)
C4 C 0.8762(7) 0.1793(4) 0.2067(4)
H8 H 0.7875 0.1743 0.1871
C5 C 0.9795(6) 0.1728(4) 0.1613(3)
C6 C 0.9498(7) 0.1629(5) 0.0827(4)
C14 C 0.8402(8) 0.1210(5) 0.0535(4)
H13 H 0.7850 0.0964 0.0846
O12 O 0.5801(4) 0.1984(3) 0.4794(2)
O13 O 0.5112(5) 0.0966(3) 0.4163(3)
O15 O 0.6547(4) 0.3659(3) 0.4534(2)
O16 O 0.5286(4) 0.3300(3) 0.3565(2)
C9 C 0.8931(8) 0.1479(5) 0.9357(4)
C10 C 0.8381(7) 0.1353(4) 0.8608(4)
C11 C 0.7250(8) 0.0908(5) 0.8657(4)
C12 C 0.6950(8) 0.0752(5) 0.9421(5)
H11 H 0.6102 0.0985 0.9529
H12 H 0.6939 0.0194 0.9526
C13 C 0.8097(7) 0.1143(5) 0.9807(4)
C15 C 0.5497(6) 0.1294(4) 0.4757(3)
C16 C 0.5486(6) 0.0793(4) 0.5427(3)
C17 C 0.4904(6) 0.0063(3) 0.5396(3)
C18 C 0.6163(6) 0.1052(4) 0.6056(3)
H15 H 0.6596 0.1536 0.6063
C19 C 0.6211(6) 0.0596(4) 0.6692(3)
C20 C 0.6918(7) 0.0862(4) 0.7368(4)
C27 C 0.6517(8) 0.0652(5) 0.8002(4)
H18 H 0.5757 0.0338 0.8022
C28 C 0.8124(8) 0.1303(5) 0.7337(4)
H19 H 0.8448 0.1414 0.6892
C29 C 0.8803(8) 0.1563(5) 0.7961(4)
H20 H 0.9555 0.1884 0.7943
O9 O 0.3453(4) 0.8659(3) 0.5466(2)
O10 O 0.4714(4) 0.8300(3) 0.6435(2)
H14 H 0.4488 0.9889 0.4957
C24 C 0.4912(6) 0.9574(3) 0.5993(3)
C25 C 0.5596(6) 0.9873(4) 0.6630(3)
H17 H 0.5636 0.9557 0.7041
C26 C 0.4320(6) 0.8809(4) 0.5977(3)
Co4 Co 0.23439(8) 0.76599(6) 0.51031(4)
Co7 Co 0.48874(8) 0.70784(5) 0.64547(4)
O3 O 0.4199(4) 0.6984(3) 0.5206(2)
O4 O 0.4888(5) 0.5966(3) 0.5837(3)
C9_2 C 0.1069(8) 0.6479(5) 0.0643(4)
C10_2 C 0.1619(7) 0.6353(4) 0.1392(4)
C11_2 C 0.2750(8) 0.5908(5) 0.1343(4)
C12_2 C 0.3050(8) 0.5752(5) 0.0579(5)
H11_2 H 0.3898 0.5985 0.0471
H12_2 H 0.3061 0.5194 0.0474
C13_2 C 0.1903(7) 0.6143(5) 0.0193(4)
C15_2 C 0.4503(6) 0.6294(4) 0.5243(3)
C16_2 C 0.4514(6) 0.5793(4) 0.4573(3)
C17_2 C 0.5096(6) 0.5063(3) 0.4604(3)
H14_2 H 0.5512 0.4889 0.5043
C18_2 C 0.3837(6) 0.6052(4) 0.3944(3)
H15_2 H 0.3404 0.6536 0.3937
C19_2 C 0.3789(6) 0.5596(4) 0.3308(3)
C20_2 C 0.3082(7) 0.5862(4) 0.2632(4)
C24_2 C 0.5088(6) 0.4574(3) 0.4007(3)
C25_2 C 0.4404(6) 0.4873(4) 0.3370(3)
H17_2 H 0.4364 0.4557 0.2959
C26_2 C 0.5680(6) 0.3809(4) 0.4023(3)
C27_2 C 0.3483(8) 0.5652(5) 0.1998(4)
H18_2 H 0.4243 0.5338 0.1978
C28_2 C 0.1876(8) 0.6303(5) 0.2663(4)
H19_2 H 0.1552 0.6414 0.3108
C29_2 C 0.1197(8) 0.6563(5) 0.2039(4)
H20_2 H 0.0445 0.6884 0.2057
O1_2 O 0.3255(4) 0.6875(3) 0.7023(2)
O2_2 O 0.1836(5) 0.7243(3) 0.6117(3)
O5_2 O 0.1132(6) 0.6657(3) 0.4648(3)
O6_2 O 0.2596(5) 0.8025(3) 0.4009(2)
O8_2 O 0.0527(6) 0.8344(4) 0.5062(3)
C1_2 C 0.2095(6) 0.7022(4) 0.6740(3)
C2_2 C 0.0995(6) 0.6925(4) 0.7219(3)
C4_2 C 0.1238(7) 0.6793(4) 0.7933(4)
H8_2 H 0.2125 0.6743 0.8129
C5_2 C 0.0205(6) 0.6728(4) 0.8387(3)
C6_2 C 0.0502(7) 0.6629(5) 0.9173(4)
C14_2 C 0.1598(8) 0.6210(5) 0.9465(4)
H13_2 H 0.2150 0.5964 0.9154
O14 O 0.6336(5) 0.6827(3) 0.7373(2)
O17 O 0.7098(4) 0.7145(4) 0.6340(2)
H5_2 H 0.9659 0.8172 0.5007
C3_2 C 0.9706(6) 0.6996(4) 0.6900(3)
H7_2 H 0.9535 0.7109 0.6410
C7_2 C 0.9673(8) 0.6912(5) 0.9639(4)
H9_2 H 0.8855 0.7127 0.9456
C21_2 C 0.8673(6) 0.6892(4) 0.7345(3)
C22_2 C 0.8899(6) 0.6773(4) 0.8066(3)
H16_2 H 0.8175 0.6720 0.8348
C23_2 C 0.7268(6) 0.6944(4) 0.7015(4)
C8 C 0.0012(9) 0.1898(6) 0.9601(5)
H10 H 0.0531 0.2167 0.9287
C8_2 C 0.9988(9) 0.6898(6) 0.0399(5)
H10_2 H 0.9469 0.7167 0.0713
loop_
_geom_bond_atom_site_label_1
_geom_bond_atom_site_label_2
_geom_bond_site_symmetry_1
_geom_bond_site_symmetry_2
O7 C23 1_555 1_555
O11 C23 1_555 1_555
C3 H7 1_555 1_555
H9 C7 1_555 1_555
C21 C3 1_555 1_555
H16 C22 1_555 1_555
C23 C21 1_555 1_555
Co6 O7 1_555 1_555
O11 Co6 1_555 1_555
C21 C22 1_555 1_555
Co1 O2 1_555 1_555
Co6 O1 1_555 1_555
O1 C1 1_555 1_555
O2 C1 1_555 1_555
O5 Co1 1_555 1_555
O6 Co1 1_555 1_555
O8 Co1 1_555 1_555
C1 C2 1_555 1_555
C4 C2 1_555 1_555
H8 C4 1_555 1_555
C5 C4 1_555 1_555
C6 C5 1_555 1_555
C14 C6 1_555 1_555
H13 C14 1_555 1_555
O12 Co1 1_555 1_555
O13 Co6 1_555 1_555
O15 Co1 1_555 1_555
O16 Co6 1_555 1_555
Co6 O12 1_555 1_555
O12 C15 1_555 1_555
O13 C15 1_555 1_555
C10 C9 1_555 1_555
C11 C10 1_555 1_555
C12 C11 1_555 1_555
H11 C12 1_555 1_555
H12 C12 1_555 1_555
C13 C9 1_555 1_555
C15 C16 1_555 1_555
C16 C17 1_555 1_555
C18 C16 1_555 1_555
H15 C18 1_555 1_555
C19 C18 1_555 1_555
C20 C19 1_555 1_555
C27 C11 1_555 1_555
H18 C27 1_555 1_555
C28 C20 1_555 1_555
H19 C28 1_555 1_555
C29 C10 1_555 1_555
H20 C29 1_555 1_555
C12 C13 1_555 1_555
C20 C27 1_555 1_555
C28 C29 1_555 1_555
O9 C26 1_555 1_555
O10 C26 1_555 1_555
H17 C25 1_555 1_555
C26 C24 1_555 1_555
Co4 O9 1_555 1_555
Co7 O10 1_555 1_555
C24 C25 1_555 1_555
O3 C15_2 1_555 1_555
O4 C15_2 1_555 1_555
O15 C26_2 1_555 1_555
O16 C26_2 1_555 1_555
C10_2 C9_2 1_555 1_555
C11_2 C10_2 1_555 1_555
C12_2 C11_2 1_555 1_555
H11_2 C12_2 1_555 1_555
H12_2 C12_2 1_555 1_555
C13_2 C9_2 1_555 1_555
C15_2 C16_2 1_555 1_555
C16_2 C17_2 1_555 1_555
C17_2 H14_2 1_555 1_555
C18_2 C16_2 1_555 1_555
H15_2 C18_2 1_555 1_555
C19_2 C18_2 1_555 1_555
C20_2 C19_2 1_555 1_555
C24_2 C17_2 1_555 1_555
C25_2 C19_2 1_555 1_555
H17_2 C25_2 1_555 1_555
C26_2 C24_2 1_555 1_555
C27_2 C11_2 1_555 1_555
H18_2 C27_2 1_555 1_555
C28_2 C20_2 1_555 1_555
H19_2 C28_2 1_555 1_555
C29_2 C10_2 1_555 1_555
H20_2 C29_2 1_555 1_555
Co4 O3 1_555 1_555
Co7 O3 1_555 1_555
O4 Co7 1_555 1_555
C12_2 C13_2 1_555 1_555
C20_2 C27_2 1_555 1_555
C24_2 C25_2 1_555 1_555
C28_2 C29_2 1_555 1_555
Co4 O2_2 1_555 1_555
Co7 O1_2 1_555 1_555
O1_2 C1_2 1_555 1_555
O2_2 C1_2 1_555 1_555
O5_2 Co4 1_555 1_555
O6_2 Co4 1_555 1_555
O8_2 Co4 1_555 1_555
C1_2 C2_2 1_555 1_555
C4_2 C2_2 1_555 1_555
H8_2 C4_2 1_555 1_555
C5_2 C4_2 1_555 1_555
C6_2 C5_2 1_555 1_555
C14_2 C6_2 1_555 1_555
H13_2 C14_2 1_555 1_555
O14 Co7 1_555 1_555
O17 Co7 1_555 1_555
O14 C23_2 1_555 1_555
O17 C23_2 1_555 1_555
C3_2 H7_2 1_555 1_555
H9_2 C7_2 1_555 1_555
C21_2 C3_2 1_555 1_555
H16_2 C22_2 1_555 1_555
C23_2 C21_2 1_555 1_555
C21_2 C22_2 1_555 1_555
H10 C8 1_555 1_555
H10_2 C8_2 1_555 1_555

#END
