
###############################################################################
#
# This file contains modified crystal structure data generated from the
# MOF subset of the Cambridge Structural Database (CSD) v542 
# hosted by the Cambridge Crystallographic Data Centre (CCDC).
#
# This work is licensed under the Creative Commons
# Attribution-NonCommercial-ShareAlike 4.0 International License.
# To view a copy of this license, visit
# http://creativecommons.org/licenses/by-nc-sa/4.0/
# or send a letter to
# Creative Commons, PO Box 1866, Mountain View, CA 94042, USA.
#
# CIF created using the CSD Python API on 22 February 2021
# The structure has been converted into the P1 space group
# The structure has a 3D framework
# The original CSD entry PUSLEX is in the monoclinic crystal system
# The framework has been calculated to contain at least 10.0% void space
# The void calculation uses a probe of radius 1.32A, grid spacing 0.4
#
###############################################################################

data_PUSLEX
_chemical_formula_moiety         '(C84 H52 Co3 N8 O28)n'
_symmetry_cell_setting           triclinic
_symmetry_space_group_name_H-M   'P 1'
_symmetry_Int_Tables_number      1
_space_group_name_Hall           'P 1'
loop_
_symmetry_equiv_pos_site_id
_symmetry_equiv_pos_as_xyz
1 x,y,z
_cell_length_a                   4.621(2)
_cell_length_b                   16.985(3)
_cell_length_c                   27.2620(10)
_cell_angle_alpha                90
_cell_angle_beta                 91.4530(10)
_cell_angle_gamma                90
_cell_volume                     2139.04
loop_
_atom_site_label
_atom_site_type_symbol
_atom_site_fract_x
_atom_site_fract_y
_atom_site_fract_z
Co4 Co 0.29869(6) 0.05654(2) 0.70025(2)
O1 O 0.6401(5) 0.00048(14) 0.15101(7)
O2 O 0.0336(6) 0.16343(16) 0.07526(8)
O3 O 0.6500(5) 0.34246(11) 0.18505(7)
N1 N 0.3585(5) 0.08720(13) 0.11191(7)
C3 C 0.4686(5) 0.01689(14) 0.02261(8)
C4 C 0.5436(6) 0.30904(15) 0.22132(10)
C5 C 0.2714(6) 0.07723(16) 0.02392(9)
O7 O 0.5491(6) 0.33663(14) 0.26271(9)
C7 C 0.3165(6) 0.12640(15) 0.15828(9)
C8 C 0.1593(6) 0.09098(15) 0.19284(9)
H5 H 0.073920 0.042309 0.186561
C9 C 0.1257(5) 0.12700(15) 0.23737(9)
C10 C 0.2077(7) 0.11341(17) 0.07127(10)
C11 C 0.4427(6) 0.19684(16) 0.16678(9)
C15 C 0.5401(6) 0.02443(16) 0.11273(9)
C17 C 0.4081(6) 0.23297(15) 0.21120(9)
C18 C 0.2474(6) 0.19844(15) 0.24644(9)
H8 H 0.215(6) 0.2269(17) 0.2786(11)
H9 H 0.560(6) 0.2246(18) 0.1398(11)
Co3 Co 0.79869(6) 0.44346(2) 0.20025(2)
H13 H 0.795(10) 0.044(3) 0.4681(17)
C22 C 0.8911(6) 0.01698(19) 0.56559(9)
N3 N 0.5262(5) 0.03613(14) 0.64140(8)
C26 C 0.8041(7) 0.0892(2) 0.57945(11)
H16 H 0.868994 0.133601 0.563098
C27 C 0.6228(7) 0.09671(18) 0.61710(11)
H17 H 0.564087 0.146903 0.626154
O14 O 0.5664(5) 0.05974(18) 0.75609(9)
O16 O 0.1500(5) 0.15754(11) 0.68505(7)
O2_2 O 0.4664(6) 0.66343(16) 0.42474(8)
N1_2 N 0.1415(5) 0.58720(13) 0.38809(7)
O4 O 0.6545(6) 0.62242(13) 0.19255(8)
C3_2 C 0.0314(5) 0.51689(14) 0.47739(8)
O5 O 0.5369(5) 0.51273(12) 0.22803(8)
C5_2 C 0.2286(6) 0.57723(16) 0.47608(9)
C7_2 C 0.1835(6) 0.62640(15) 0.34172(9)
C8_2 C 0.3407(6) 0.59098(15) 0.30716(9)
H5_2 H 0.426080 0.542309 0.313439
C9_2 C 0.3743(5) 0.62700(15) 0.26263(9)
C10_2 C 0.2923(7) 0.61341(17) 0.42873(10)
C11_2 C 0.0573(6) 0.69684(16) 0.33322(9)
C12 C 0.3599(7) 0.60214(18) 0.51829(10)
C14 C 0.5381(6) 0.58700(16) 0.22415(9)
C17_2 C 0.0919(6) 0.73297(15) 0.28880(9)
C18_2 C 0.2526(6) 0.69844(15) 0.25356(9)
H8_2 H 0.285(6) 0.7269(17) 0.2214(11)
H11 H 0.514(7) 0.6445(19) 0.5140(12)
O8 O 0.1401(5) 0.49952(14) 0.65101(7)
C35 C 0.1050(6) 0.51065(15) 0.56531(9)
C37 C 0.0401(6) 0.47557(16) 0.61273(9)
C38 C 0.2947(7) 0.56904(17) 0.56323(10)
H21 H 0.393(8) 0.590(2) 0.5913(13)
C39 C 0.0436(6) 0.19096(15) 0.72132(10)
O13 O 0.0491(6) 0.16337(14) 0.76271(9)
H24 H 0.060(6) 0.2754(18) 0.6398(11)
H22 H 0.014(7) 0.8555(19) 0.0140(12)
O10 O 0.1545(6) 0.87758(13) 0.69255(8)
O11 O 0.0369(5) 0.98727(12) 0.72803(8)
C36 C 0.0381(6) 0.91300(16) 0.72415(9)
C16 C 0.9171(6) 0.9941(3) 0.47624(11)
H12 H 0.802(9) 0.949(2) 0.4787(15)
C23 C 0.6077(7) 0.96614(18) 0.62785(11)
H14 H 0.538954 0.922667 0.644713
C24 C 0.7870(7) 0.95418(19) 0.59049(12)
H15 H 0.839409 0.903308 0.581759
C12_2 C 0.1401(7) 0.10214(18) 0.98171(10)
C35_2 C 0.3950(6) 0.01065(15) 0.93469(9)
C38_2 C 0.2053(7) 0.06904(17) 0.93677(10)
H21_2 H 0.107(8) 0.090(2) 0.9087(13)
C13 C 0.6050(6) 0.98935(15) 0.06531(9)
C21 C 0.7947(7) 0.93096(17) 0.06323(10)
H10 H 0.893(8) 0.910(2) 0.0913(13)
C34 C 0.8599(7) 0.89786(18) 0.01829(10)
O8_2 O 0.3599(5) 0.99952(14) 0.84899(7)
O9 O 0.9664(6) 0.83657(16) 0.92474(8)
N4 N 0.6415(5) 0.91280(13) 0.88809(7)
C28 C 0.5314(5) 0.98311(14) 0.97739(8)
C29 C 0.7286(6) 0.92277(16) 0.97608(9)
C30 C 0.6835(6) 0.87360(15) 0.84172(9)
C31 C 0.8407(6) 0.90902(15) 0.80716(9)
H20 H 0.926080 0.957691 0.813439
C32 C 0.8743(5) 0.87300(15) 0.76263(9)
C33 C 0.7923(7) 0.88659(17) 0.92873(10)
C37_2 C 0.4599(6) 0.97557(16) 0.88727(9)
O12 O 0.3500(5) 0.65754(11) 0.81495(7)
C39_2 C 0.4564(6) 0.69096(15) 0.77868(10)
O13_2 O 0.4509(6) 0.66337(14) 0.73729(9)
C40 C 0.5573(6) 0.80316(16) 0.83322(9)
C41 C 0.5919(6) 0.76703(15) 0.78880(9)
C42 C 0.7526(6) 0.80156(15) 0.75356(9)
H23 H 0.785(6) 0.7731(17) 0.7214(11)
H24_2 H 0.440(6) 0.7754(18) 0.8602(11)
Co5 Co 0.20131(6) 0.55654(2) 0.79975(2)
Co1 Co 0.70131(6) 0.94346(2) 0.29975(2)
C1 C 0.1089(6) 0.98302(19) 0.43441(9)
O6 O 0.4336(5) 0.94026(18) 0.24391(9)
N2 N 0.4738(5) 0.96387(14) 0.35860(8)
C19 C 0.1959(7) 0.9108(2) 0.42055(11)
H6 H 0.131006 0.866399 0.436902
C20 C 0.3772(7) 0.90329(18) 0.38290(11)
H7 H 0.435913 0.853097 0.373846
H19 H 0.205(10) 0.956(3) 0.5319(17)
O15 O 0.8500(5) 0.84246(11) 0.31495(7)
O17 O 0.4631(5) 0.48727(12) 0.77197(8)
O1_2 O 0.8599(5) 0.50048(14) 0.34899(7)
C4_2 C 0.9564(6) 0.80904(15) 0.27868(10)
O7_2 O 0.9509(6) 0.83663(14) 0.23729(9)
C13_2 C 0.8950(6) 0.48935(15) 0.43469(9)
C15_2 C 0.9599(6) 0.52443(16) 0.38727(9)
C21_2 C 0.7053(7) 0.43096(17) 0.43677(10)
H9_2 H 0.940(6) 0.7246(18) 0.3602(11)
H10_2 H 0.607(8) 0.410(2) 0.4087(13)
O9_2 O 0.5336(6) 0.33657(16) 0.57526(8)
N4_2 N 0.8585(5) 0.41280(13) 0.61191(7)
O10_2 O 0.3455(6) 0.37758(13) 0.80745(8)
C28_2 C 0.9686(5) 0.48311(14) 0.52261(8)
C29_2 C 0.7714(6) 0.42277(16) 0.52392(9)
C30_2 C 0.8165(6) 0.37360(15) 0.65828(9)
C31_2 C 0.6593(6) 0.40902(15) 0.69284(9)
H20_2 H 0.573920 0.457691 0.686561
C32_2 C 0.6257(5) 0.37300(15) 0.73737(9)
C33_2 C 0.7077(7) 0.38659(17) 0.57127(10)
C34_2 C 0.6401(7) 0.39786(18) 0.48171(10)
C36_2 C 0.4619(6) 0.41300(16) 0.77585(9)
H22_2 H 0.486(7) 0.3555(19) 0.4860(12)
C40_2 C 0.9427(6) 0.30316(16) 0.66678(9)
C41_2 C 0.9081(6) 0.26703(15) 0.71120(9)
C42_2 C 0.7474(6) 0.30156(15) 0.74644(9)
H23_2 H 0.715(6) 0.2731(17) 0.7786(11)
C2 C 0.3923(7) 0.03386(18) 0.37215(11)
H1 H 0.461046 0.077333 0.355287
O4_2 O 0.8455(6) 0.12242(13) 0.30745(8)
O5_2 O 0.9631(5) 0.01273(12) 0.27197(8)
C6 C 0.2130(7) 0.04582(19) 0.40951(12)
H4 H 0.160591 0.096692 0.418241
C14_2 C 0.9619(6) 0.08700(16) 0.27585(9)
C25 C 0.0829(6) 0.0059(3) 0.52376(11)
H18 H 0.198(9) 0.051(2) 0.5213(15)
H11_2 H 0.986(7) 0.1445(19) 0.9860(12)
C1_2 C 0.3911(6) 0.48302(19) 0.06559(9)
C2_2 C 0.1077(7) 0.53386(18) 0.12785(11)
H1_2 H 0.038954 0.577333 0.144713
O6_2 O 0.0664(5) 0.44026(18) 0.25609(9)
C6_2 C 0.2870(7) 0.54582(19) 0.09049(12)
H4_2 H 0.339409 0.596692 0.081759
N2_2 N 0.0262(5) 0.46387(14) 0.14140(8)
C16_2 C 0.5829(6) 0.4941(3) 0.02376(11)
C19_2 C 0.3041(7) 0.4108(2) 0.07945(11)
H6_2 H 0.368994 0.366399 0.063098
C20_2 C 0.1228(7) 0.40329(18) 0.11710(11)
H7_2 H 0.064087 0.353097 0.126154
H12_2 H 0.698(9) 0.449(2) 0.0213(15)
H13_2 H 0.705(10) 0.544(3) 0.0319(17)
C22_2 C 0.6089(6) 0.51698(19) 0.93441(9)
C23_2 C 0.8923(7) 0.46614(18) 0.87215(11)
H14_2 H 0.961046 0.422667 0.855287
C24_2 C 0.7130(7) 0.45418(19) 0.90951(12)
H15_2 H 0.660591 0.403308 0.918241
N3_2 N 0.9738(5) 0.53613(14) 0.85860(8)
C25_2 C 0.4171(6) 0.5059(3) 0.97624(11)
C26_2 C 0.6959(7) 0.5892(2) 0.92055(11)
H16_2 H 0.631006 0.633601 0.936902
C27_2 C 0.8772(7) 0.59671(18) 0.88290(11)
H17_2 H 0.935913 0.646903 0.873846
H18_2 H 0.302(9) 0.551(2) 0.9787(15)
H19_2 H 0.295(10) 0.456(3) 0.9681(17)
O14_2 O 0.9336(5) 0.55974(18) 0.74391(9)
loop_
_geom_bond_atom_site_label_1
_geom_bond_atom_site_label_2
_geom_bond_site_symmetry_1
_geom_bond_site_symmetry_2
O1 C15 1_555 1_555
O2 C10 1_555 1_555
O3 C4 1_555 1_555
N1 C7 1_555 1_555
C3 C5 1_555 1_555
C4 O7 1_555 1_555
C5 C10 1_555 1_555
C7 C8 1_555 1_555
C8 H5 1_555 1_555
C9 C8 1_555 1_555
C10 N1 1_555 1_555
C11 C7 1_555 1_555
C15 N1 1_555 1_555
C17 C4 1_555 1_555
C18 C9 1_555 1_555
H8 C18 1_555 1_555
H9 C11 1_555 1_555
Co3 O3 1_555 1_555
C11 C17 1_555 1_555
C17 C18 1_555 1_555
C26 C22 1_555 1_555
H16 C26 1_555 1_555
C27 N3 1_555 1_555
H17 C27 1_555 1_555
Co4 N3 1_555 1_555
O14 Co4 1_555 1_555
O16 Co4 1_555 1_555
C26 C27 1_555 1_555
Co3 O5 1_555 1_555
O2_2 C10_2 1_555 1_555
N1_2 C7_2 1_555 1_555
O4 C14 1_555 1_555
C3_2 C5_2 1_555 1_555
O5 C14 1_555 1_555
C5_2 C10_2 1_555 1_555
C7_2 C8_2 1_555 1_555
C8_2 H5_2 1_555 1_555
C9_2 C8_2 1_555 1_555
C10_2 N1_2 1_555 1_555
C11_2 C7_2 1_555 1_555
C12 C5_2 1_555 1_555
C14 C9_2 1_555 1_555
C18_2 C9_2 1_555 1_555
H8_2 C18_2 1_555 1_555
H11 C12 1_555 1_555
O8 C37 1_555 1_555
C38 C12 1_555 1_555
H21 C38 1_555 1_555
O16 C39 1_555 1_555
C39 O13 1_555 1_555
C11_2 C17_2 1_555 1_555
C17_2 C18_2 1_555 1_555
C35 C37 1_555 1_555
C35 C38 1_555 1_555
O10 C36 1_555 1_555
O11 C36 1_555 1_555
H12 C16 1_555 1_555
C23 H14 1_555 1_555
C24 C23 1_555 1_555
H15 C24 1_555 1_555
C38_2 C12_2 1_555 1_555
H21_2 C38_2 1_555 1_555
C35_2 C38_2 1_555 1_555
C21 C13 1_555 1_555
H10 C21 1_555 1_555
C34 C21 1_555 1_555
O8_2 C37_2 1_555 1_555
O9 C33 1_555 1_555
N4 C30 1_555 1_555
C29 C28 1_555 1_555
C30 C31 1_555 1_555
C31 H20 1_555 1_555
C32 C31 1_555 1_555
C33 N4 1_555 1_555
C37_2 N4 1_555 1_555
O12 C39_2 1_555 1_555
C39_2 O13_2 1_555 1_555
C40 C30 1_555 1_555
C41 C39_2 1_555 1_555
C42 C32 1_555 1_555
H23 C42 1_555 1_555
H24_2 C40 1_555 1_555
Co5 O12 1_555 1_555
C29 C33 1_555 1_555
C40 C41 1_555 1_555
C41 C42 1_555 1_555
O6 Co1 1_555 1_555
N2 Co1 1_555 1_555
C19 C1 1_555 1_555
H6 C19 1_555 1_555
C20 N2 1_555 1_555
H7 C20 1_555 1_555
O15 Co1 1_555 1_555
C19 C20 1_555 1_555
O17 Co5 1_555 1_555
O1_2 C15_2 1_555 1_555
O15 C4_2 1_555 1_555
C4_2 O7_2 1_555 1_555
C21_2 C13_2 1_555 1_555
H10_2 C21_2 1_555 1_555
O9_2 C33_2 1_555 1_555
N4_2 C30_2 1_555 1_555
O10_2 C36_2 1_555 1_555
O17 C36_2 1_555 1_555
C29_2 C28_2 1_555 1_555
C30_2 C31_2 1_555 1_555
C31_2 H20_2 1_555 1_555
C32_2 C31_2 1_555 1_555
C33_2 N4_2 1_555 1_555
C34_2 C21_2 1_555 1_555
C36_2 C32_2 1_555 1_555
H22_2 C34_2 1_555 1_555
C40_2 C30_2 1_555 1_555
C42_2 C32_2 1_555 1_555
H23_2 C42_2 1_555 1_555
C13_2 C15_2 1_555 1_555
C29_2 C33_2 1_555 1_555
C29_2 C34_2 1_555 1_555
C40_2 C41_2 1_555 1_555
C41_2 C42_2 1_555 1_555
C2 H1 1_555 1_555
O4_2 C14_2 1_555 1_555
O5_2 C14_2 1_555 1_555
C6 C2 1_555 1_555
H4 C6 1_555 1_555
H18 C25 1_555 1_555
C1_2 C6_2 1_555 1_555
C2_2 H1_2 1_555 1_555
C6_2 C2_2 1_555 1_555
H4_2 C6_2 1_555 1_555
C16_2 C1_2 1_555 1_555
C19_2 C1_2 1_555 1_555
H6_2 C19_2 1_555 1_555
C20_2 N2_2 1_555 1_555
H7_2 C20_2 1_555 1_555
H12_2 C16_2 1_555 1_555
H13_2 C16_2 1_555 1_555
C2_2 N2_2 1_555 1_555
C19_2 C20_2 1_555 1_555
C22_2 C24_2 1_555 1_555
C23_2 H14_2 1_555 1_555
C24_2 C23_2 1_555 1_555
H15_2 C24_2 1_555 1_555
N3_2 C23_2 1_555 1_555
C26_2 C22_2 1_555 1_555
H16_2 C26_2 1_555 1_555
C27_2 N3_2 1_555 1_555
H17_2 C27_2 1_555 1_555
H18_2 C25_2 1_555 1_555
H19_2 C25_2 1_555 1_555
C22_2 C25_2 1_555 1_555
C26_2 C27_2 1_555 1_555

#END
