
###############################################################################
#
# This file contains modified crystal structure data generated from the
# MOF subset of the Cambridge Structural Database (CSD) v542 
# hosted by the Cambridge Crystallographic Data Centre (CCDC).
#
# This work is licensed under the Creative Commons
# Attribution-NonCommercial-ShareAlike 4.0 International License.
# To view a copy of this license, visit
# http://creativecommons.org/licenses/by-nc-sa/4.0/
# or send a letter to
# Creative Commons, PO Box 1866, Mountain View, CA 94042, USA.
#
# CIF created using the CSD Python API on 22 February 2021
# The structure has been converted into the P1 space group
# The structure has a 3D framework
# The original CSD entry RIBRAY is in the tetragonal crystal system
# The original CSD entry RIBRAY is in a Sohncke space group
# The framework has been calculated to contain at least 10.0% void space
# The void calculation uses a probe of radius 1.32A, grid spacing 0.4
# Generated hydrogen atom positions removed from atoms on special positions
#
###############################################################################

data_RIBRAY
_chemical_formula_moiety         '(C39 H29 Dy4 O28)n'
_symmetry_cell_setting           triclinic
_symmetry_space_group_name_H-M   'P 1'
_symmetry_Int_Tables_number      1
_space_group_name_Hall           'P 1'
loop_
_symmetry_equiv_pos_site_id
_symmetry_equiv_pos_as_xyz
1 x,y,z
_cell_length_a                   10.2323(3)
_cell_length_b                   10.2323(3)
_cell_length_c                   14.3722(5)
_cell_angle_alpha                90
_cell_angle_beta                 90
_cell_angle_gamma                90
_cell_volume                     1504.77
loop_
_atom_site_label
_atom_site_type_symbol
_atom_site_fract_x
_atom_site_fract_y
_atom_site_fract_z
Dy1 Dy 0.35475(9) 0.35475(9) 0.625000
O1 O 0.426(3) 0.392(3) 0.4024(18)
O2 O 0.2522(15) 0.4208(15) 0.4888(10)
O3 O 0.1874(18) 0.1874(18) 0.625000
C1 C 0.234(2) 0.465(2) 0.3286(14)
C2 C 0.302(3) 0.500000 0.250000
H1 H 0.393283 0.500001 0.250001
C3 C 0.031(3) 0.500000 0.250000
C5 C 0.313(2) 0.420(2) 0.4117(14)
C6 C 0.101(2) 0.461(2) 0.3299(13)
H2 H 0.057169 0.432376 0.382774
O5 O 0.426(3) 0.608(3) 0.0976(18)
O6 O 0.2522(15) 0.5792(15) 0.0112(10)
C7 C 0.234(2) 0.535(2) 0.1714(14)
C8 C 0.313(2) 0.580(2) 0.0883(14)
C9 C 0.101(2) 0.539(2) 0.1701(13)
H3 H 0.057169 0.567624 0.117226
Dy3 Dy 0.64525(9) 0.35475(9) 0.375000
Dy5 Dy 0.64525(9) 0.64525(9) 0.125000
O8 O 0.392(3) 0.574(3) 0.6524(18)
O9 O 0.574(3) 0.392(3) 0.5976(18)
O10 O 0.4208(15) 0.2522(15) 0.7612(10)
O11 O 0.4288(19) 0.1680(16) 0.5588(12)
O12 O 0.1680(16) 0.4288(19) 0.6912(12)
Dy6 Dy 0.35475(9) 0.64525(9) 0.875000
C4 C 0.892(3) 0.500000 0.250000
O4 O 0.8320(16) 0.4288(19) 0.3088(12)
O7 O 0.8320(16) 0.5712(19) 0.1912(12)
O1_2 O 0.608(3) 0.426(3) 0.1524(18)
O2_2 O 0.5792(15) 0.2522(15) 0.2388(10)
O3_2 O 0.8126(18) 0.1874(18) 0.375000
C1_2 C 0.535(2) 0.234(2) 0.0786(14)
C2_2 C 0.500000 0.302(3) -0.000000
H1_2 H 0.499999 0.393283 0.000001
C3_2 C 0.500000 0.031(3) -0.000000
C5_2 C 0.580(2) 0.313(2) 0.1617(14)
C6_2 C 0.539(2) 0.101(2) 0.0799(13)
H2_2 H 0.567624 0.057169 0.132774
O9_2 O 0.608(3) 0.574(3) 0.3476(18)
O10_2 O 0.7478(15) 0.4208(15) 0.5112(10)
O12_2 O 0.5712(19) 0.1680(16) 0.4412(12)
C2_3 C 0.500000 0.302(3) 1.000000
H1_3 H 0.499999 0.393283 1.000001
C3_3 C 0.500000 0.031(3) 1.000000
O5_2 O 0.392(3) 0.426(3) 0.8476(18)
C7_2 C 0.465(2) 0.234(2) 0.9214(14)
C8_2 C 0.420(2) 0.313(2) 0.8383(14)
C9_2 C 0.461(2) 0.101(2) 0.9201(13)
H3_2 H 0.432376 0.057169 0.867226
C4_2 C 0.500000 0.892(3) -0.000000
O4_2 O 0.5712(19) 0.8320(16) 0.0588(12)
C4_3 C 0.500000 0.892(3) 1.000000
O7_2 O 0.4288(19) 0.8320(16) 0.9412(12)
C4_4 C 0.108(3) 0.500000 0.750000
O4_3 O 0.1680(16) 0.5712(19) 0.8088(12)
O3_3 O 0.8126(18) 0.8126(18) 0.125000
O10_3 O 0.5792(15) 0.7478(15) 0.2612(10)
O1_3 O 0.574(3) 0.608(3) 0.9024(18)
O2_3 O 0.7478(15) 0.5792(15) 0.9888(10)
C1_3 C 0.766(2) 0.535(2) 0.8286(14)
C2_4 C 0.698(3) 0.500000 0.750000
H1_4 H 0.606717 0.499999 0.750001
C3_4 C 0.969(3) 0.500000 0.750000
C5_3 C 0.687(2) 0.580(2) 0.9117(14)
C6_3 C 0.899(2) 0.539(2) 0.8299(13)
H2_3 H 0.942831 0.567624 0.882774
C7_3 C 0.766(2) 0.465(2) 0.6714(14)
C8_3 C 0.687(2) 0.420(2) 0.5883(14)
C9_3 C 0.899(2) 0.461(2) 0.6701(13)
H3_3 H 0.942831 0.432376 0.617226
C4_5 C 0.500000 0.108(3) 0.500000
O2_4 O 0.4208(15) 0.7478(15) 0.7388(10)
O3_4 O 0.1874(18) 0.8126(18) 0.875000
C1_4 C 0.465(2) 0.766(2) 0.5786(14)
C2_5 C 0.500000 0.698(3) 0.500000
H1_5 H 0.500001 0.606717 0.500001
C3_5 C 0.500000 0.969(3) 0.500000
C5_4 C 0.420(2) 0.687(2) 0.6617(14)
C6_4 C 0.461(2) 0.899(2) 0.5799(13)
H2_4 H 0.432376 0.942831 0.632774
C7_4 C 0.535(2) 0.766(2) 0.4214(14)
C8_4 C 0.580(2) 0.687(2) 0.3383(14)
C9_4 C 0.539(2) 0.899(2) 0.4201(13)
H3_4 H 0.567624 0.942831 0.367226
loop_
_geom_bond_atom_site_label_1
_geom_bond_atom_site_label_2
_geom_bond_site_symmetry_1
_geom_bond_site_symmetry_2
Dy1 O2 1_555 1_555
O1 C5 1_555 1_555
O2 C5 1_555 1_555
O3 Dy1 1_555 1_555
C1 C2 1_555 1_555
C2 H1 1_555 1_555
C5 C1 1_555 1_555
C6 C1 1_555 1_555
H2 C6 1_555 1_555
O5 C8 1_555 1_555
O6 C8 1_555 1_555
C7 C2 1_555 1_555
C8 C7 1_555 1_555
C9 C3 1_555 1_555
H3 C9 1_555 1_555
Dy3 O1 1_555 1_555
Dy5 O5 1_555 1_555
O8 Dy1 1_555 1_555
O9 Dy1 1_555 1_555
O10 Dy1 1_555 1_555
O11 Dy1 1_555 1_555
O12 Dy1 1_555 1_555
C3 C6 1_555 1_555
C7 C9 1_555 1_555
C4 O4 1_555 1_555
O4 Dy3 1_555 1_555
O7 C4 1_555 1_555
Dy5 O7 1_555 1_555
Dy3 O2_2 1_555 1_555
O1_2 C5_2 1_555 1_555
O2_2 C5_2 1_555 1_555
O3_2 Dy3 1_555 1_555
C1_2 C2_2 1_555 1_555
C2_2 H1_2 1_555 1_555
C5_2 C1_2 1_555 1_555
C6_2 C1_2 1_555 1_555
H2_2 C6_2 1_555 1_555
Dy5 O1_2 1_555 1_555
O9_2 Dy3 1_555 1_555
O10_2 Dy3 1_555 1_555
O12_2 Dy3 1_555 1_555
C3_2 C6_2 1_555 1_555
C2_3 H1_3 1_555 1_555
O5_2 C8_2 1_555 1_555
O10 C8_2 1_555 1_555
C7_2 C2_3 1_555 1_555
C8_2 C7_2 1_555 1_555
C9_2 C3_3 1_555 1_555
H3_2 C9_2 1_555 1_555
Dy6 O5_2 1_555 1_555
C7_2 C9_2 1_555 1_555
C4_2 O4_2 1_555 1_555
O4_2 Dy5 1_555 1_555
O7_2 C4_3 1_555 1_555
Dy6 O7_2 1_555 1_555
C4_4 O4_3 1_555 1_555
O4_3 Dy6 1_555 1_555
O12 C4_4 1_555 1_555
O3_3 Dy5 1_555 1_555
O10_3 Dy5 1_555 1_555
O1_3 C5_3 1_555 1_555
O2_3 C5_3 1_555 1_555
C1_3 C2_4 1_555 1_555
C2_4 H1_4 1_555 1_555
C5_3 C1_3 1_555 1_555
C6_3 C1_3 1_555 1_555
H2_3 C6_3 1_555 1_555
O9 C8_3 1_555 1_555
O10_2 C8_3 1_555 1_555
C7_3 C2_4 1_555 1_555
C8_3 C7_3 1_555 1_555
C9_3 C3_4 1_555 1_555
H3_3 C9_3 1_555 1_555
Dy6 O1_3 1_555 1_555
C3_4 C6_3 1_555 1_555
C7_3 C9_3 1_555 1_555
C4_5 O11 1_555 1_555
O12_2 C4_5 1_555 1_555
Dy6 O2_4 1_555 1_555
O8 C5_4 1_555 1_555
O2_4 C5_4 1_555 1_555
O3_4 Dy6 1_555 1_555
C1_4 C2_5 1_555 1_555
C2_5 H1_5 1_555 1_555
C5_4 C1_4 1_555 1_555
C6_4 C1_4 1_555 1_555
H2_4 C6_4 1_555 1_555
O9_2 C8_4 1_555 1_555
O10_3 C8_4 1_555 1_555
C7_4 C2_5 1_555 1_555
C8_4 C7_4 1_555 1_555
C9_4 C3_5 1_555 1_555
H3_4 C9_4 1_555 1_555
C3_5 C6_4 1_555 1_555
C7_4 C9_4 1_555 1_555

#END
