
###############################################################################
#
# This file contains modified crystal structure data generated from the
# MOF subset of the Cambridge Structural Database (CSD) v542 
# hosted by the Cambridge Crystallographic Data Centre (CCDC).
#
# This work is licensed under the Creative Commons
# Attribution-NonCommercial-ShareAlike 4.0 International License.
# To view a copy of this license, visit
# http://creativecommons.org/licenses/by-nc-sa/4.0/
# or send a letter to
# Creative Commons, PO Box 1866, Mountain View, CA 94042, USA.
#
# CIF created using the CSD Python API on 22 February 2021
# The structure has been converted into the P1 space group
# The structure has a 3D framework
# The original CSD entry RUHDEG is in the triclinic crystal system
# The framework has been calculated to contain at least 10.0% void space
# The void calculation uses a probe of radius 1.32A, grid spacing 0.4
#
###############################################################################

data_RUHDEG
_chemical_formula_moiety         '(C92 H62 Co4 N12 O16)n'
_symmetry_cell_setting           triclinic
_symmetry_space_group_name_H-M   'P 1'
_symmetry_Int_Tables_number      1
_space_group_name_Hall           'P 1'
loop_
_symmetry_equiv_pos_site_id
_symmetry_equiv_pos_as_xyz
1 x,y,z
_cell_length_a                   10.0236(2)
_cell_length_b                   12.116(3)
_cell_length_c                   19.983(3)
_cell_angle_alpha                87.654(5)
_cell_angle_beta                 76.231(2)
_cell_angle_gamma                73.761(4)
_cell_volume                     2262.22
loop_
_atom_site_label
_atom_site_type_symbol
_atom_site_fract_x
_atom_site_fract_y
_atom_site_fract_z
_atom_site_U_iso_or_equiv
_atom_site_thermal_displace_type
N4 N 0.0932(4) 0.2023(3) 0.19860(19) 0.0444 Uani
N5 N 0.2234(4) 0.3129(3) 0.15078(19) 0.0431 Uani
C20 C 0.1426(6) 0.0217(5) 0.2540(3) 0.0580 Uani
H12 H 0.2190 0.0386 0.2659 0.0690 Uiso
C21 C 0.0563(5) 0.1002(4) 0.2200(2) 0.0432 Uani
C24 C 0.2241(5) 0.2089(4) 0.1661(3) 0.0495 Uani
H15 H 0.3049 0.1462 0.1559 0.0590 Uiso
C25 C 0.0016(5) 0.3102(4) 0.2030(3) 0.0554 Uani
C26 C 0.0836(5) 0.3781(4) 0.1736(3) 0.0540 Uani
H17 H 0.0509 0.4572 0.1693 0.0650 Uiso
Co10 Co 0.38005(5) 0.37046(4) 0.09324(3) 0.0296 Uani
N14 N 0.2989(4) 0.4241(3) 0.01069(19) 0.0446 Uani
Co3 Co 0.48670(8) 0.32453(5) 0.28284(3) 0.0470 Uani
O11 O 0.5249(5) 0.1814(3) 0.2342(2) 0.0737 Uani
O12 O 0.5647(6) 0.1081(4) 0.3318(3) 0.0896 Uani
O15 O 0.6621(5) 0.3682(4) 0.2847(3) 0.0849 Uani
O16 O 0.5730(9) 0.4110(9) 0.3927(4) 0.1787 Uani
N8 N 0.0211(5) 0.2130(4) 0.73115(19) 0.0518 Uani
N9 N 0.1693(6) 0.3104(4) 0.4527(2) 0.0680 Uani
N10 N 0.3091(6) 0.3357(4) 0.3560(2) 0.0667 Uani
N13 N 0.2052(4) 0.4193(3) 0.9231(2) 0.0461 Uani
C53 C 0.5426(6) 0.0997(5) 0.2746(3) 0.0610 Uani
C55 C 0.0560(6) 0.2366(4) 0.6602(2) 0.0491 Uani
C57 C 0.0085(7) 0.3533(7) 0.5666(3) 0.0861 Uani
C58 C 0.1260(7) 0.2848(5) 0.5245(3) 0.0620 Uani
C59 C 0.2063(8) 0.1898(6) 0.5488(3) 0.0850 Uani
H37 H 0.2851 0.1415 0.5191 0.1020 Uiso
C60 C 0.1714(7) 0.1649(6) 0.6169(3) 0.0759 Uani
H38 H 0.2260 0.0995 0.6338 0.0910 Uiso
C61 C 0.3020(7) 0.3083(6) 0.4197(3) 0.0720 Uani
H39 H 0.3797 0.2895 0.4399 0.0860 Uiso
C62 C 0.0837(9) 0.3434(9) 0.4084(4) 0.1142 Uani
C63 C 0.1715(9) 0.3565(8) 0.3492(3) 0.0996 Uani
H41 H 0.1431 0.3771 0.3083 0.1200 Uiso
C69 C 0.0855(6) 0.0249(5) 0.7810(3) 0.0581 Uani
H45 H 0.1632 0.0409 0.7923 0.0690 Uiso
C73 C 0.0617(5) 0.2717(4) 0.7787(2) 0.0450 Uani
C74 C 0.0049(6) 0.2652(5) 0.8484(2) 0.0546 Uani
C75 C 0.0498(6) 0.3152(5) 0.8951(3) 0.0555 Uani
H50 H 0.0116 0.3099 0.9419 0.0660 Uiso
C76 C 0.1518(5) 0.3739(4) 0.8737(2) 0.0451 Uani
C77 C 0.2027(5) 0.3866(4) 0.8044(2) 0.0442 Uani
H51 H 0.2678 0.4292 0.7896 0.0530 Uiso
C78 C 0.1576(5) 0.3366(4) 0.7577(2) 0.0445 Uani
H52 H 0.1915 0.3461 0.7109 0.0540 Uiso
C79 C 0.2495(5) 0.3633(4) 0.9757(2) 0.0458 Uani
H53 H 0.2457 0.2886 0.9864 0.0550 Uiso
C80 C 0.2301(6) 0.5237(4) 0.9247(3) 0.0557 Uani
H54 H 0.2115 0.5825 0.8939 0.0670 Uiso
C81 C 0.2864(6) 0.5258(4) 0.9786(3) 0.0530 Uani
H55 H 0.3128 0.5876 0.9921 0.0630 Uiso
C82 C 0.6664(10) 0.4029(8) 0.3425(5) 0.1056 Uani
H56 H 0.7474 0.4232 0.3460 0.1270 Uiso
H57 H 0.5610 0.0347 0.1473 0.0830 Uiso
O18 O 0.3968(5) 0.4396(4) 0.2222(2) 0.0794 Uani
O9 O 0.5768(3) 0.2763(3) 0.06917(18) 0.0523 Uani
O10 O 0.4815(4) 0.1559(3) 0.0312(2) 0.0606 Uani
C47 C 0.5863(5) 0.1823(4) 0.0409(2) 0.0439 Uani
C48 C 0.7340(5) 0.1007(4) 0.0211(2) 0.0403 Uani
C49 C 0.8506(5) 0.1294(4) 0.0326(2) 0.0419 Uani
H32 H 0.8369 0.2011 0.0523 0.0510 Uiso
C50 C 0.9909(5) 0.0534(4) 0.0153(2) 0.0395 Uani
O13 O 0.3789(4) 0.5208(3) 0.12563(17) 0.0517 Uani
C54 C 0.3974(5) 0.5230(4) 0.1853(2) 0.0442 Uani
C68 C 0.0586(6) 0.9224(5) 0.7968(3) 0.0553 Uani
H44 H 0.1175 0.8677 0.8189 0.0670 Uiso
H47 H 0.0964 0.6680 0.7779 0.0660 Uiso
C83 C 0.5385(6) 0.9776(5) 0.1767(4) 0.0693 Uani
C84 C 0.4511(4) 0.7095(3) 0.16857(13) 0.0656 Uani
H58 H 0.4521 0.7044 0.1221 0.0790 Uiso
C85 C 0.4799(4) 0.8033(3) 0.19395(15) 0.0595 Uani
C86 C 0.4784(4) 0.8108(2) 0.26336(16) 0.0530 Uani
C87 C 0.4481(4) 0.7246(3) 0.30738(13) 0.0696 Uani
H59 H 0.4471 0.7297 0.3538 0.0840 Uiso
C88 C 0.4193(4) 0.6308(3) 0.28200(17) 0.0673 Uani
H60 H 0.3990 0.5732 0.3114 0.0810 Uiso
C89 C 0.4208(4) 0.6233(3) 0.21259(18) 0.0539 Uani
C90 C 0.5054(6) 0.9090(5) 0.2901(4) 0.0718 Uani
H61 H 0.5047 0.9147 0.3365 0.0860 Uiso
C91 C 0.5309(6) 0.9904(5) 0.2477(4) 0.0645 Uani
C92 C 0.5142(6) 0.8854(5) 0.1492(3) 0.0692 Uani
H62 H 0.5207 0.8787 0.1022 0.0830 Uiso
C10 C 0.0261(7) 0.6692(6) 0.3648(3) 0.0771 Uani
H4 H 0.1052 0.6205 0.3355 0.0920 Uiso
H5 H 0.0490 0.5839 0.4510 0.1030 Uiso
H9 H 0.0146 0.6454 0.5827 0.1370 Uiso
C18 C 0.0019(5) 0.8947(4) 0.2516(2) 0.0460 Uani
C19 C 0.1152(6) 0.9197(4) 0.2701(3) 0.0562 Uani
H11 H 0.1725 0.8661 0.2935 0.0670 Uiso
H18 H 0.0644 0.7736 0.1367 0.0650 Uiso
C7 C 0.2467(5) 0.0056(4) 0.0092(2) 0.0455 Uani
H2 H 0.3244 0.0261 0.0171 0.0540 Uiso
C8 C 0.1127(5) 0.0796(4) 0.0271(2) 0.0475 Uani
H3 H 0.1008 0.1500 0.0480 0.0570 Uiso
Co2 Co 0.61995(5) 0.62954(4) 0.90676(3) 0.0296 Uani
O3 O 0.6211(4) 0.4792(3) 0.87437(17) 0.0517 Uani
O4 O 0.6032(5) 0.5604(4) 0.7778(2) 0.0794 Uani
O5 O 0.4232(3) 0.7237(3) 0.93083(18) 0.0523 Uani
O6 O 0.5185(4) 0.8441(3) 0.9688(2) 0.0606 Uani
C2 C 0.6026(5) 0.4770(4) 0.8147(2) 0.0442 Uani
C3 C 0.4137(5) 0.8177(4) 0.9591(2) 0.0439 Uani
C4 C 0.2660(5) 0.8993(4) 0.9789(2) 0.0403 Uani
C5 C 0.1494(5) 0.8706(4) 0.9674(2) 0.0419 Uani
H1 H 0.1631 0.7989 0.9477 0.0510 Uiso
C6 C 0.0091(5) 0.9466(4) 0.9847(2) 0.0395 Uani
C22 C 0.9414(6) 0.0776(5) 0.2032(3) 0.0553 Uani
H13 H 0.8825 0.1323 0.1811 0.0670 Uiso
H16 H 0.9036 0.3320 0.2221 0.0660 Uiso
C37 C 0.4615(6) 0.0224(5) 0.8233(4) 0.0693 Uani
C38 C 0.5489(4) 0.2905(3) 0.83143(13) 0.0656 Uani
H27 H 0.5479 0.2956 0.8779 0.0790 Uiso
C39 C 0.5201(4) 0.1967(3) 0.80605(15) 0.0595 Uani
C40 C 0.5216(4) 0.1892(2) 0.73664(16) 0.0530 Uani
C41 C 0.5519(4) 0.2754(3) 0.69262(13) 0.0696 Uani
H28 H 0.5529 0.2703 0.6462 0.0840 Uiso
C42 C 0.5807(4) 0.3692(3) 0.71800(17) 0.0673 Uani
H29 H 0.6010 0.4268 0.6886 0.0810 Uiso
C43 C 0.5792(4) 0.3767(3) 0.78741(18) 0.0539 Uani
C44 C 0.4946(6) 0.0910(5) 0.7099(4) 0.0718 Uani
H30 H 0.4953 0.0853 0.6635 0.0860 Uiso
C45 C 0.4691(6) 0.0096(5) 0.7523(4) 0.0645 Uani
C46 C 0.4858(6) 0.1146(5) 0.8508(3) 0.0692 Uani
H31 H 0.4793 0.1213 0.8978 0.0830 Uiso
Co5 Co 0.51330(8) 0.67547(5) 0.71716(3) 0.0470 Uani
N16 N 0.7766(4) 0.6871(3) 0.84922(19) 0.0431 Uani
N17 N 0.7011(4) 0.5759(3) 0.98931(19) 0.0446 Uani
O1 O 0.4751(5) 0.8186(3) 0.7658(2) 0.0737 Uani
O2 O 0.4353(6) 0.8919(4) 0.6682(3) 0.0896 Uani
O7 O 0.3379(5) 0.6318(4) 0.7153(3) 0.0849 Uani
O8 O 0.4270(9) 0.5890(9) 0.6073(4) 0.1787 Uani
N1 N 0.9789(5) 0.7870(4) 0.26885(19) 0.0518 Uani
N2 N 0.8307(6) 0.6896(4) 0.5473(2) 0.0680 Uani
N3 N 0.6909(6) 0.6643(4) 0.6440(2) 0.0667 Uani
N6 N 0.7948(4) 0.5807(3) 0.0769(2) 0.0461 Uani
C1 C 0.4574(6) 0.9003(5) 0.7254(3) 0.0610 Uani
C9 C 0.9440(6) 0.7634(4) 0.3398(2) 0.0491 Uani
C11 C 0.9915(7) 0.6467(7) 0.4334(3) 0.0861 Uani
C12 C 0.8740(7) 0.7152(5) 0.4755(3) 0.0620 Uani
C13 C 0.7937(8) 0.8102(6) 0.4512(3) 0.0850 Uani
H6 H 0.7149 0.8585 0.4809 0.1020 Uiso
C14 C 0.8286(7) 0.8351(6) 0.3831(3) 0.0759 Uani
H7 H 0.7740 0.9005 0.3662 0.0910 Uiso
C15 C 0.6980(7) 0.6917(6) 0.5803(3) 0.0720 Uani
H8 H 0.6203 0.7105 0.5601 0.0860 Uiso
C16 C 0.9163(9) 0.6566(9) 0.5916(4) 0.1142 Uani
C17 C 0.8285(9) 0.6435(8) 0.6508(3) 0.0996 Uani
H10 H 0.8569 0.6229 0.6917 0.1200 Uiso
C23 C 0.9145(6) 0.9751(5) 0.2190(3) 0.0581 Uani
H14 H 0.8368 0.9591 0.2077 0.0690 Uiso
C27 C 0.9383(5) 0.7283(4) 0.2213(2) 0.0450 Uani
C28 C 0.9951(6) 0.7348(5) 0.1516(2) 0.0546 Uani
C29 C 0.9502(6) 0.6848(5) 0.1049(3) 0.0555 Uani
H19 H 0.9884 0.6901 0.0581 0.0660 Uiso
C30 C 0.8482(5) 0.6261(4) 0.1263(2) 0.0451 Uani
C31 C 0.7973(5) 0.6134(4) 0.1956(2) 0.0442 Uani
H20 H 0.7322 0.5708 0.2104 0.0530 Uiso
C32 C 0.8424(5) 0.6634(4) 0.2423(2) 0.0445 Uani
H21 H 0.8085 0.6539 0.2891 0.0540 Uiso
C33 C 0.7505(5) 0.6367(4) 0.0243(2) 0.0458 Uani
H22 H 0.7543 0.7114 0.0136 0.0550 Uiso
C34 C 0.7699(6) 0.4763(4) 0.0753(3) 0.0557 Uani
H23 H 0.7885 0.4175 0.1061 0.0670 Uiso
C35 C 0.7136(6) 0.4742(4) 0.0214(3) 0.0530 Uani
H24 H 0.6872 0.4124 0.0079 0.0630 Uiso
C36 C 0.3336(10) 0.5971(8) 0.6575(5) 0.1056 Uani
H25 H 0.2526 0.5768 0.6540 0.1270 Uiso
H26 H 0.4390 0.9653 0.8527 0.0830 Uiso
N11 N 0.9068(4) 0.7977(3) 0.80140(19) 0.0444 Uani
C66 C 0.8574(6) 0.9783(5) 0.7460(3) 0.0580 Uani
H43 H 0.7810 0.9614 0.7341 0.0690 Uiso
C67 C 0.9437(5) 0.8998(4) 0.7800(2) 0.0432 Uani
C70 C 0.7759(5) 0.7911(4) 0.8339(3) 0.0495 Uani
H46 H 0.6951 0.8538 0.8441 0.0590 Uiso
C71 C 0.9984(5) 0.6898(4) 0.7970(3) 0.0554 Uani
C72 C 0.9164(5) 0.6219(4) 0.8264(3) 0.0540 Uani
H48 H 0.9491 0.5428 0.8307 0.0650 Uiso
C51 C 0.7533(5) 0.9944(4) 0.9908(2) 0.0455 Uani
H33 H 0.6756 0.9739 0.9829 0.0540 Uiso
C52 C 0.8873(5) 0.9204(4) 0.9729(2) 0.0475 Uani
H34 H 0.8992 0.8500 0.9520 0.0570 Uiso
C56 C 0.9739(7) 0.3308(6) 0.6352(3) 0.0771 Uani
H35 H 0.8948 0.3795 0.6645 0.0920 Uiso
H36 H 0.9510 0.4161 0.5490 0.1030 Uiso
H40 H 0.9854 0.3546 0.4173 0.1370 Uiso
C64 C 0.9981(5) 0.1053(4) 0.7484(2) 0.0460 Uani
C65 C 0.8848(6) 0.0803(4) 0.7299(3) 0.0562 Uani
H42 H 0.8275 0.1339 0.7065 0.0670 Uiso
H49 H 0.9356 0.2264 0.8633 0.0650 Uiso
loop_
_atom_site_aniso_label
_atom_site_aniso_U_11
_atom_site_aniso_U_22
_atom_site_aniso_U_33
_atom_site_aniso_U_23
_atom_site_aniso_U_13
_atom_site_aniso_U_12
N4 0.038 0.045 0.048 0.0083 -0.0039 -0.0145
N5 0.039 0.038 0.051 0.0072 -0.0077 -0.0121
C20 0.047 0.064 0.074 0.019 -0.022 -0.029
C21 0.042 0.041 0.048 0.01 -0.006 -0.019
C24 0.035 0.043 0.066 0.008 -0.004 -0.011
C25 0.037 0.051 0.068 0.011 -0.001 -0.007
C26 0.041 0.046 0.065 0.008 -0.002 -0.006
Co10 0.0272 0.0269 0.0345 0.0016 -0.0031 -0.0109
N14 0.053 0.039 0.042 0.0027 -0.007 -0.0169
Co3 0.0705 0.0377 0.0365 0.0012 -0.0062 -0.0265
O11 0.107 0.047 0.069 -0.0022 -0.009 -0.034
O12 0.116 0.07 0.094 -0.001 -0.037 -0.033
O15 0.068 0.087 0.102 -0.01 -0.011 -0.031
O16 0.162 0.252 0.121 -0.029 0.021 -0.097
N8 0.065 0.06 0.039 0.0084 -0.0075 -0.036
N9 0.079 0.08 0.048 0.018 -0.014 -0.03
N10 0.085 0.066 0.047 0.009 -0.008 -0.025
N13 0.05 0.043 0.047 0.0061 -0.0118 -0.0162
C53 0.067 0.049 0.075 0.005 -0.016 -0.03
C55 0.057 0.054 0.044 0.013 -0.011 -0.03
C57 0.069 0.105 0.062 0.029 -0.004 -0.002
C58 0.072 0.072 0.044 0.011 -0.011 -0.027
C59 0.107 0.072 0.048 0.008 0.009 -0.004
C60 0.085 0.07 0.055 0.018 -0.003 -0.007
C61 0.071 0.088 0.05 0.013 -0.003 -0.022
C62 0.092 0.199 0.057 0.038 -0.026 -0.047
C63 0.106 0.149 0.055 0.033 -0.028 -0.05
C69 0.053 0.074 0.063 0.018 -0.02 -0.04
C73 0.046 0.052 0.04 0.008 -0.007 -0.022
C74 0.059 0.066 0.046 0.004 -0.002 -0.038
C75 0.066 0.06 0.042 0.004 0 -0.031
C76 0.043 0.044 0.046 0.002 -0.005 -0.013
C77 0.043 0.042 0.046 0.009 -0.006 -0.014
C78 0.042 0.05 0.041 0.008 -0.0049 -0.017
C79 0.057 0.037 0.046 0.006 -0.012 -0.018
C80 0.074 0.036 0.061 0.012 -0.021 -0.019
C81 0.069 0.042 0.054 0.009 -0.016 -0.025
C82 0.097 0.133 0.089 -0.017 0 -0.051
O18 0.111 0.078 0.078 0.036 -0.044 -0.059
O9 0.0442 0.0396 0.069 -0.0038 -0.0051 -0.0114
O10 0.0383 0.059 0.084 -0.0087 -0.011 -0.0141
C47 0.039 0.042 0.048 0.007 -0.005 -0.012
C48 0.035 0.041 0.043 0.0034 -0.0044 -0.0119
C49 0.038 0.037 0.049 0.0006 -0.0037 -0.0132
C50 0.039 0.037 0.041 0.0046 -0.0038 -0.0135
O13 0.066 0.0406 0.052 0.0023 -0.014 -0.0203
C54 0.043 0.042 0.05 0.001 -0.008 -0.018
C68 0.052 0.059 0.064 0.023 -0.022 -0.026
C83 0.064 0.055 0.091 -0.012 -0.018 -0.018
C84 0.049 0.049 0.089 -0.014 -0.004 -0.006
C85 0.046 0.071 0.053 0.012 -0.007 -0.008
C86 0.046 0.055 0.048 0.006 -0.007 -0.002
C87 0.072 0.069 0.063 0.006 -0.013 -0.015
C88 0.072 0.067 0.066 -0.012 -0.012 -0.026
C89 0.048 0.046 0.068 -0.006 -0.005 -0.02
C90 0.052 0.067 0.094 -0.002 -0.014 -0.015
C91 0.043 0.04 0.111 0.014 -0.018 -0.014
C92 0.069 0.061 0.069 0.007 -0.007 -0.013
C10 0.069 0.088 0.057 0.02 0.002 -0.011
C18 0.046 0.052 0.042 0.009 -0.003 -0.024
C19 0.052 0.052 0.073 0.017 -0.023 -0.023
C7 0.04 0.044 0.055 -0.002 -0.01 -0.016
C8 0.045 0.044 0.054 -0.007 -0.007 -0.016
Co2 0.0272 0.0269 0.0345 0.0016 -0.0031 -0.0109
O3 0.066 0.0406 0.052 0.0023 -0.014 -0.0203
O4 0.111 0.078 0.078 0.036 -0.044 -0.059
O5 0.0442 0.0396 0.069 -0.0038 -0.0051 -0.0114
O6 0.0383 0.059 0.084 -0.0087 -0.011 -0.0141
C2 0.043 0.042 0.05 0.001 -0.008 -0.018
C3 0.039 0.042 0.048 0.007 -0.005 -0.012
C4 0.035 0.041 0.043 0.0034 -0.0044 -0.0119
C5 0.038 0.037 0.049 0.0006 -0.0037 -0.0132
C6 0.039 0.037 0.041 0.0046 -0.0038 -0.0135
C22 0.052 0.059 0.064 0.023 -0.022 -0.026
C37 0.064 0.055 0.091 -0.012 -0.018 -0.018
C38 0.049 0.049 0.089 -0.014 -0.004 -0.006
C39 0.046 0.071 0.053 0.012 -0.007 -0.008
C40 0.046 0.055 0.048 0.006 -0.007 -0.002
C41 0.072 0.069 0.063 0.006 -0.013 -0.015
C42 0.072 0.067 0.066 -0.012 -0.012 -0.026
C43 0.048 0.046 0.068 -0.006 -0.005 -0.02
C44 0.052 0.067 0.094 -0.002 -0.014 -0.015
C45 0.043 0.04 0.111 0.014 -0.018 -0.014
C46 0.069 0.061 0.069 0.007 -0.007 -0.013
Co5 0.0705 0.0377 0.0365 0.0012 -0.0062 -0.0265
N16 0.039 0.038 0.051 0.0072 -0.0077 -0.0121
N17 0.053 0.039 0.042 0.0027 -0.007 -0.0169
O1 0.107 0.047 0.069 -0.0022 -0.009 -0.034
O2 0.116 0.07 0.094 -0.001 -0.037 -0.033
O7 0.068 0.087 0.102 -0.01 -0.011 -0.031
O8 0.162 0.252 0.121 -0.029 0.021 -0.097
N1 0.065 0.06 0.039 0.0084 -0.0075 -0.036
N2 0.079 0.08 0.048 0.018 -0.014 -0.03
N3 0.085 0.066 0.047 0.009 -0.008 -0.025
N6 0.05 0.043 0.047 0.0061 -0.0118 -0.0162
C1 0.067 0.049 0.075 0.005 -0.016 -0.03
C9 0.057 0.054 0.044 0.013 -0.011 -0.03
C11 0.069 0.105 0.062 0.029 -0.004 -0.002
C12 0.072 0.072 0.044 0.011 -0.011 -0.027
C13 0.107 0.072 0.048 0.008 0.009 -0.004
C14 0.085 0.07 0.055 0.018 -0.003 -0.007
C15 0.071 0.088 0.05 0.013 -0.003 -0.022
C16 0.092 0.199 0.057 0.038 -0.026 -0.047
C17 0.106 0.149 0.055 0.033 -0.028 -0.05
C23 0.053 0.074 0.063 0.018 -0.02 -0.04
C27 0.046 0.052 0.04 0.008 -0.007 -0.022
C28 0.059 0.066 0.046 0.004 -0.002 -0.038
C29 0.066 0.06 0.042 0.004 0 -0.031
C30 0.043 0.044 0.046 0.002 -0.005 -0.013
C31 0.043 0.042 0.046 0.009 -0.006 -0.014
C32 0.042 0.05 0.041 0.008 -0.0049 -0.017
C33 0.057 0.037 0.046 0.006 -0.012 -0.018
C34 0.074 0.036 0.061 0.012 -0.021 -0.019
C35 0.069 0.042 0.054 0.009 -0.016 -0.025
C36 0.097 0.133 0.089 -0.017 0 -0.051
N11 0.038 0.045 0.048 0.0083 -0.0039 -0.0145
C66 0.047 0.064 0.074 0.019 -0.022 -0.029
C67 0.042 0.041 0.048 0.01 -0.006 -0.019
C70 0.035 0.043 0.066 0.008 -0.004 -0.011
C71 0.037 0.051 0.068 0.011 -0.001 -0.007
C72 0.041 0.046 0.065 0.008 -0.002 -0.006
C51 0.04 0.044 0.055 -0.002 -0.01 -0.016
C52 0.045 0.044 0.054 -0.007 -0.007 -0.016
C56 0.069 0.088 0.057 0.02 0.002 -0.011
C64 0.046 0.052 0.042 0.009 -0.003 -0.024
C65 0.052 0.052 0.073 0.017 -0.023 -0.023
loop_
_geom_bond_atom_site_label_1
_geom_bond_atom_site_label_2
_geom_bond_site_symmetry_1
_geom_bond_site_symmetry_2
N4 C21 1_555 1_555
N5 C24 1_555 1_555
H12 C20 1_555 1_555
C21 C20 1_555 1_555
C24 N4 1_555 1_555
H15 C24 1_555 1_555
C25 N4 1_555 1_555
C26 N5 1_555 1_555
H17 C26 1_555 1_555
Co10 N5 1_555 1_555
C25 C26 1_555 1_555
Co10 N14 1_555 1_555
Co3 O11 1_555 1_555
O11 C53 1_555 1_555
O12 C53 1_555 1_555
O15 Co3 1_555 1_555
O16 C82 1_555 1_555
N8 C55 1_555 1_555
N9 C58 1_555 1_555
N10 Co3 1_555 1_555
N13 C76 1_555 1_555
C58 C57 1_555 1_555
C59 C58 1_555 1_555
H37 C59 1_555 1_555
C60 C55 1_555 1_555
H38 C60 1_555 1_555
C61 N9 1_555 1_555
H39 C61 1_555 1_555
C62 N9 1_555 1_555
C63 N10 1_555 1_555
H41 C63 1_555 1_555
H45 C69 1_555 1_555
C73 N8 1_555 1_555
C74 C73 1_555 1_555
C75 C74 1_555 1_555
H50 C75 1_555 1_555
C76 C75 1_555 1_555
C77 C76 1_555 1_555
H51 C77 1_555 1_555
C78 C73 1_555 1_555
H52 C78 1_555 1_555
C79 N13 1_555 1_555
H53 C79 1_555 1_555
C80 N13 1_555 1_555
H54 C80 1_555 1_555
H55 C81 1_555 1_555
C82 O15 1_555 1_555
H56 C82 1_555 1_555
O18 Co3 1_555 1_555
N10 C61 1_555 1_555
C59 C60 1_555 1_555
C62 C63 1_555 1_555
C77 C78 1_555 1_555
C80 C81 1_555 1_555
O9 C47 1_555 1_555
O10 C47 1_555 1_555
C47 C48 1_555 1_555
C48 C49 1_555 1_555
C49 H32 1_555 1_555
Co10 O9 1_555 1_555
O13 Co10 1_555 1_555
O18 C54 1_555 1_555
C54 O13 1_555 1_555
H44 C68 1_555 1_555
C84 H58 1_555 1_555
C85 C84 1_555 1_555
C86 C85 1_555 1_555
C87 C86 1_555 1_555
H59 C87 1_555 1_555
C88 C87 1_555 1_555
H60 C88 1_555 1_555
C89 C54 1_555 1_555
C90 C86 1_555 1_555
H61 C90 1_555 1_555
C91 C83 1_555 1_555
C92 C83 1_555 1_555
H62 C92 1_555 1_555
C49 C50 1_555 1_555
C84 C89 1_555 1_555
C85 C92 1_555 1_555
C88 C89 1_555 1_555
C90 C91 1_555 1_555
C10 H4 1_555 1_555
C19 C18 1_555 1_555
H11 C19 1_555 1_555
H2 C7 1_555 1_555
C8 C7 1_555 1_555
H3 C8 1_555 1_555
Co2 O3 1_555 1_555
O3 C2 1_555 1_555
O4 C2 1_555 1_555
O5 Co2 1_555 1_555
O6 C3 1_555 1_555
C2 C43 1_555 1_555
C3 O5 1_555 1_555
C4 C3 1_555 1_555
C5 C4 1_555 1_555
H1 C5 1_555 1_555
C6 C5 1_555 1_555
H13 C22 1_555 1_555
C38 H27 1_555 1_555
C39 C38 1_555 1_555
C40 C39 1_555 1_555
C41 C40 1_555 1_555
H28 C41 1_555 1_555
C42 C41 1_555 1_555
H29 C42 1_555 1_555
C43 C38 1_555 1_555
C44 C40 1_555 1_555
H30 C44 1_555 1_555
C45 C37 1_555 1_555
C46 C37 1_555 1_555
H31 C46 1_555 1_555
Co5 O4 1_555 1_555
N16 Co2 1_555 1_555
N17 Co2 1_555 1_555
C39 C46 1_555 1_555
C42 C43 1_555 1_555
C44 C45 1_555 1_555
Co5 O1 1_555 1_555
O1 C1 1_555 1_555
O2 C1 1_555 1_555
O7 Co5 1_555 1_555
O8 C36 1_555 1_555
N1 C9 1_555 1_555
N2 C12 1_555 1_555
N3 Co5 1_555 1_555
N6 C30 1_555 1_555
C12 C11 1_555 1_555
C13 C12 1_555 1_555
H6 C13 1_555 1_555
C14 C9 1_555 1_555
H7 C14 1_555 1_555
C15 N2 1_555 1_555
H8 C15 1_555 1_555
C16 N2 1_555 1_555
C17 N3 1_555 1_555
H10 C17 1_555 1_555
H14 C23 1_555 1_555
C27 N1 1_555 1_555
C28 C27 1_555 1_555
C29 C28 1_555 1_555
H19 C29 1_555 1_555
C30 C29 1_555 1_555
C31 C30 1_555 1_555
H20 C31 1_555 1_555
C32 C27 1_555 1_555
H21 C32 1_555 1_555
C33 N6 1_555 1_555
H22 C33 1_555 1_555
C34 N6 1_555 1_555
H23 C34 1_555 1_555
H24 C35 1_555 1_555
C36 O7 1_555 1_555
H25 C36 1_555 1_555
N3 C15 1_555 1_555
C13 C14 1_555 1_555
C16 C17 1_555 1_555
C31 C32 1_555 1_555
C34 C35 1_555 1_555
N11 C67 1_555 1_555
N16 C70 1_555 1_555
H43 C66 1_555 1_555
C67 C66 1_555 1_555
C70 N11 1_555 1_555
H46 C70 1_555 1_555
C71 N11 1_555 1_555
C72 N16 1_555 1_555
H48 C72 1_555 1_555
C71 C72 1_555 1_555
H33 C51 1_555 1_555
H34 C52 1_555 1_555
C51 C52 1_555 1_555
C56 H35 1_555 1_555
C65 C64 1_555 1_555
H42 C65 1_555 1_555

#END
