
###############################################################################
#
# This file contains modified crystal structure data generated from the
# MOF subset of the Cambridge Structural Database (CSD) v542 
# hosted by the Cambridge Crystallographic Data Centre (CCDC).
#
# This work is licensed under the Creative Commons
# Attribution-NonCommercial-ShareAlike 4.0 International License.
# To view a copy of this license, visit
# http://creativecommons.org/licenses/by-nc-sa/4.0/
# or send a letter to
# Creative Commons, PO Box 1866, Mountain View, CA 94042, USA.
#
# CIF created using the CSD Python API on 22 February 2021
# The structure has been converted into the P1 space group
# The structure has a 3D framework
# The original CSD entry TEYHIR is in the tetragonal crystal system
# The original CSD entry TEYHIR is in a Sohncke space group
# The framework has been calculated to contain at least 10.0% void space
# The void calculation uses a probe of radius 1.32A, grid spacing 0.4
# H atom positions have been added when not included in the experimental data
#
###############################################################################

data_TEYHIR
_chemical_formula_moiety         '(C84 H34 O36 Zn9)n'
_symmetry_cell_setting           triclinic
_symmetry_space_group_name_H-M   'P 1'
_symmetry_Int_Tables_number      1
_space_group_name_Hall           'P 1'
loop_
_symmetry_equiv_pos_site_id
_symmetry_equiv_pos_as_xyz
1 x,y,z
_cell_length_a                   15.1210(5)
_cell_length_b                   15.1210(5)
_cell_length_c                   12.2023(5)
_cell_angle_alpha                90
_cell_angle_beta                 90
_cell_angle_gamma                90
_cell_volume                     2789.99
loop_
_atom_site_label
_atom_site_type_symbol
_atom_site_fract_x
_atom_site_fract_y
_atom_site_fract_z
O4 O 0.7103(4) 0.5911(4) 0.2450(6)
O5 O 0.6171(5) 0.6118(5) 0.3853(5)
C6 C 0.500000 0.500000 0.0603(11)
C7 C 0.5697(8) 0.5375(7) 0.2296(9)
C8 C 0.500000 0.500000 0.2880(11)
H3 H 0.500001 0.499999 0.364198
C9 C 0.5698(8) 0.5350(7) 0.1173(9)
H4 H 0.618104 0.557492 0.079131
C10 C 0.6394(6) 0.5842(7) 0.2923(7)
O8 O 0.2897(4) 0.4089(4) 0.2450(6)
O9 O 0.3829(5) 0.3882(5) 0.3853(5)
C14 C 0.4303(8) 0.4625(7) 0.2296(9)
C15 C 0.4302(8) 0.4650(7) 0.1173(9)
H6 H 0.381896 0.442508 0.079131
C16 C 0.3606(6) 0.4158(7) 0.2923(7)
Zn3 Zn 0.31163(3) 0.31163(3) 0.500000
Zn5 Zn 0.81163(3) 0.68837(3) 0.250000
Zn6 Zn 0.18837(3) 0.31163(3) 0.250000
Zn9 Zn 0.68837(3) 0.68837(3) 0.500000
O1 O 0.4089(4) 0.2897(4) 0.7550(6)
O2 O 0.3882(5) 0.3829(5) 0.6147(5)
O3 O 0.250000 0.2483(11) 0.375000
C1 C 0.500000 0.500000 0.9397(11)
C2 C 0.4625(7) 0.4303(8) 0.7704(9)
C3 C 0.500000 0.500000 0.7120(11)
H1 H 0.500001 0.499999 0.635802
C4 C 0.4650(7) 0.4302(8) 0.8827(9)
H2 H 0.442508 0.381896 0.920869
C5 C 0.4158(7) 0.3606(6) 0.7077(7)
O6 O 0.5911(4) 0.7103(4) 0.7550(6)
O7 O 0.6118(5) 0.6171(5) 0.6147(5)
C11 C 0.5375(7) 0.5697(8) 0.7704(9)
C12 C 0.5350(7) 0.5698(8) 0.8827(9)
H5 H 0.557492 0.618104 0.920869
C13 C 0.5842(7) 0.6394(6) 0.7077(7)
O10 O 0.2483(11) 0.250000 0.625000
Zn4 Zn 0.68837(3) 0.81163(3) 0.750000
Zn7 Zn 0.31163(3) 0.18837(3) 0.750000
O11 O 0.0911(4) 0.2103(4) 0.2550(6)
O12 O 0.4089(4) 0.2103(4) 0.4950(6)
O13 O 0.2103(4) 0.4089(4) 0.5050(6)
O15 O 0.1118(5) 0.3829(5) 0.1353(5)
O16 O 0.1171(5) 0.3882(5) 0.3647(5)
O18 O 0.2517(11) 0.250000 0.125000
Zn3_2 Zn 0.18837(3) 0.18837(3) 0.000000
O2_2 O 0.1118(5) 0.1171(5) 0.1147(5)
C1_2 C -0.000000 -0.000000 0.4397(11)
C2_2 C 0.0375(7) 0.0697(8) 0.2704(9)
C3_2 C -0.000000 -0.000000 0.2120(11)
H1_2 H -0.000001 0.000001 0.135802
C4_2 C 0.0350(7) 0.0698(8) 0.3827(9)
H2_2 H 0.057492 0.118104 0.420869
C5_2 C 0.0842(7) 0.1394(6) 0.2077(7)
C6_2 C -0.000000 -0.000000 0.5603(11)
C8_2 C 0.000000 0.000000 0.7880(11)
H3_2 H -0.000001 0.000001 0.864198
O8_2 O 0.2103(4) 0.0911(4) 0.7450(6)
O9_2 O 0.1171(5) 0.1118(5) 0.8853(5)
C14_2 C 0.0697(8) 0.0375(7) 0.7296(9)
C15_2 C 0.0698(8) 0.0350(7) 0.6173(9)
H6_2 H 0.118104 0.057492 0.579131
C16_2 C 0.1394(6) 0.0842(7) 0.7923(7)
Zn3_3 Zn 0.18837(3) 0.18837(3) 1.000000
O13_2 O 0.2897(4) 0.0911(4) 0.0050(6)
O3_2 O 0.250000 0.2517(11) 0.875000
O12_2 O 0.0911(4) 0.2897(4) 0.9950(6)
O15_2 O 0.3882(5) 0.1171(5) 0.6353(5)
O16_2 O 0.3829(5) 0.1118(5) 0.8647(5)
Zn9_2 Zn 0.81163(3) 0.81163(3) 0.000000
C1_3 C 1.000000 1.000000 0.4397(11)
C3_3 C 1.000000 1.000000 0.2120(11)
H1_3 H 0.999999 1.000001 0.135802
O4_2 O 0.7897(4) 0.9089(4) 0.7450(6)
O5_2 O 0.8829(5) 0.8882(5) 0.8853(5)
C6_3 C 1.000000 1.000000 0.5603(11)
C7_2 C 0.9303(8) 0.9625(7) 0.7296(9)
C8_3 C 1.000000 1.000000 0.7880(11)
H3_3 H 0.999999 1.000001 0.864198
C9_2 C 0.9302(8) 0.9650(7) 0.6173(9)
H4_2 H 0.881896 0.942508 0.579131
C10_2 C 0.8606(6) 0.9158(7) 0.7923(7)
O6_2 O 0.9089(4) 0.7897(4) 0.2550(6)
O7_2 O 0.8882(5) 0.8829(5) 0.1147(5)
C11_2 C 0.9625(7) 0.9303(8) 0.2704(9)
C12_2 C 0.9650(7) 0.9302(8) 0.3827(9)
H5_2 H 0.942508 0.881896 0.420869
C13_2 C 0.9158(7) 0.8606(6) 0.2077(7)
Zn9_3 Zn 0.81163(3) 0.81163(3) 1.000000
C1_4 C 0.500000 0.000000 0.1897(11)
C6_4 C 0.500000 0.000000 0.3103(11)
C7_3 C 0.4625(7) 0.0697(8) 0.4796(9)
C8_4 C 0.500000 0.000000 0.5380(11)
H3_4 H 0.500001 0.000001 0.614198
C9_3 C 0.4650(7) 0.0698(8) 0.3673(9)
H4_3 H 0.442508 0.118104 0.329131
C10_3 C 0.4158(7) 0.1394(6) 0.5423(7)
C11_3 C 0.4303(8) 0.0375(7) 0.0204(9)
C12_3 C 0.4302(8) 0.0350(7) 0.1327(9)
H5_3 H 0.381896 0.057492 0.170869
C3_4 C 0.500000 0.000000 0.9620(11)
H1_4 H 0.500001 0.000001 0.885802
C13_3 C 0.3606(6) 0.0842(7) 0.9577(7)
O1_2 O 0.7103(4) 0.9089(4) 0.0050(6)
C1_5 C 0.500000 1.000000 0.1897(11)
C2_3 C 0.5697(8) 0.9625(7) 0.0204(9)
C4_3 C 0.5698(8) 0.9650(7) 0.1327(9)
H2_3 H 0.618104 0.942508 0.170869
C6_5 C 0.500000 1.000000 0.3103(11)
C8_5 C 0.500000 1.000000 0.5380(11)
H3_5 H 0.500001 1.000001 0.614198
O8_3 O 0.5911(4) 0.7897(4) 0.4950(6)
O9_3 O 0.6118(5) 0.8829(5) 0.6353(5)
C14_3 C 0.5375(7) 0.9303(8) 0.4796(9)
C15_3 C 0.5350(7) 0.9302(8) 0.3673(9)
H6_3 H 0.557492 0.881896 0.329131
C16_3 C 0.5842(7) 0.8606(6) 0.5423(7)
O2_3 O 0.6171(5) 0.8882(5) 0.8647(5)
O3_3 O 0.7517(11) 0.750000 0.625000
C3_5 C 0.500000 1.000000 0.9620(11)
H1_5 H 0.500001 1.000001 0.885802
C5_3 C 0.6394(6) 0.9158(7) 0.9577(7)
O10_2 O 0.750000 0.7483(11) 0.875000
O11_2 O 0.7897(4) 0.5911(4) 0.5050(6)
O18_2 O 0.750000 0.7517(11) 0.375000
C8_6 C -0.000000 0.500000 0.0380(11)
H3_6 H -0.000001 0.499999 0.114198
C10_4 C 0.0842(7) 0.3606(6) 0.0423(7)
C1_6 C 0.000000 0.500000 0.6897(11)
C3_6 C 0.000000 0.500000 0.4620(11)
H1_6 H -0.000001 0.499999 0.385802
C6_6 C 0.000000 0.500000 0.8103(11)
C7_4 C 0.0375(7) 0.4303(8) 0.9796(9)
C9_4 C 0.0350(7) 0.4302(8) 0.8673(9)
H4_4 H 0.057492 0.381896 0.829131
C11_4 C 0.0697(8) 0.4625(7) 0.5204(9)
C12_4 C 0.0698(8) 0.4650(7) 0.6327(9)
H5_4 H 0.118104 0.442508 0.670869
C13_4 C 0.1394(6) 0.4158(7) 0.4577(7)
C8_7 C 1.000000 0.500000 0.0380(11)
H3_7 H 0.999999 0.499999 0.114198
O9_4 O 0.8882(5) 0.6171(5) 0.1353(5)
C16_4 C 0.9158(7) 0.6394(6) 0.0423(7)
O2_4 O 0.8829(5) 0.6118(5) 0.3647(5)
O3_4 O 0.7483(11) 0.750000 0.125000
C1_7 C 1.000000 0.500000 0.6897(11)
C2_4 C 0.9303(8) 0.5375(7) 0.5204(9)
C3_7 C 1.000000 0.500000 0.4620(11)
H1_7 H 0.999999 0.499999 0.385802
C4_4 C 0.9302(8) 0.5350(7) 0.6327(9)
H2_4 H 0.881896 0.557492 0.670869
C5_4 C 0.8606(6) 0.5842(7) 0.4577(7)
C6_7 C 1.000000 0.500000 0.8103(11)
O8_4 O 0.9089(4) 0.7103(4) 0.9950(6)
C14_4 C 0.9625(7) 0.5697(8) 0.9796(9)
C15_4 C 0.9650(7) 0.5698(8) 0.8673(9)
H6_4 H 0.942508 0.618104 0.829131
C1_8 C -0.000000 1.000000 0.4397(11)
C3_8 C -0.000000 1.000000 0.2120(11)
H1_8 H -0.000001 1.000001 0.135802
C6_8 C -0.000000 1.000000 0.5603(11)
C8_8 C 0.000000 1.000000 0.7880(11)
H3_8 H -0.000001 1.000001 0.864198
C1_9 C 1.000000 -0.000000 0.4397(11)
C3_9 C 1.000000 -0.000000 0.2120(11)
H1_9 H 0.999999 0.000001 0.135802
C6_9 C 1.000000 -0.000000 0.5603(11)
C8_9 C 1.000000 0.000000 0.7880(11)
H3_9 H 0.999999 0.000001 0.864198
loop_
_geom_bond_atom_site_label_1
_geom_bond_atom_site_label_2
_geom_bond_site_symmetry_1
_geom_bond_site_symmetry_2
O4 C10 1_555 1_555
O5 C10 1_555 1_555
C7 C8 1_555 1_555
C8 H3 1_555 1_555
C9 C6 1_555 1_555
H4 C9 1_555 1_555
C10 C7 1_555 1_555
O8 C16 1_555 1_555
O9 C16 1_555 1_555
C14 C8 1_555 1_555
C15 C6 1_555 1_555
H6 C15 1_555 1_555
C16 C14 1_555 1_555
Zn3 O9 1_555 1_555
Zn5 O4 1_555 1_555
Zn6 O8 1_555 1_555
Zn9 O5 1_555 1_555
C7 C9 1_555 1_555
C14 C15 1_555 1_555
Zn3 O2 1_555 1_555
O1 C5 1_555 1_555
O2 C5 1_555 1_555
O3 Zn3 1_555 1_555
C1 C4 1_555 1_555
C2 C3 1_555 1_555
C3 H1 1_555 1_555
C4 C2 1_555 1_555
H2 C4 1_555 1_555
C5 C2 1_555 1_555
O6 C13 1_555 1_555
O7 C13 1_555 1_555
C11 C3 1_555 1_555
C12 C1 1_555 1_555
H5 C12 1_555 1_555
C13 C11 1_555 1_555
Zn6 O3 1_555 1_555
O10 Zn3 1_555 1_555
Zn4 O6 1_555 1_555
Zn7 O1 1_555 1_555
Zn9 O7 1_555 1_555
O11 Zn6 1_555 1_555
O12 Zn3 1_555 1_555
O13 Zn3 1_555 1_555
O15 Zn6 1_555 1_555
O16 Zn6 1_555 1_555
O18 Zn6 1_555 1_555
C11 C12 1_555 1_555
O10 Zn7 1_555 1_555
Zn3_2 O2_2 1_555 1_555
O11 C5_2 1_555 1_555
O2_2 C5_2 1_555 1_555
C1_2 C4_2 1_555 1_555
C2_2 C3_2 1_555 1_555
C3_2 H1_2 1_555 1_555
C4_2 C2_2 1_555 1_555
H2_2 C4_2 1_555 1_555
C5_2 C2_2 1_555 1_555
C6_2 C1_2 1_555 1_555
C8_2 H3_2 1_555 1_555
O8_2 C16_2 1_555 1_555
O9_2 C16_2 1_555 1_555
C14_2 C8_2 1_555 1_555
C15_2 C6_2 1_555 1_555
H6_2 C15_2 1_555 1_555
C16_2 C14_2 1_555 1_555
O18 Zn3_2 1_555 1_555
Zn3_3 O9_2 1_555 1_555
Zn7 O8_2 1_555 1_555
O13_2 Zn3_2 1_555 1_555
C14_2 C15_2 1_555 1_555
O3_2 Zn3_3 1_555 1_555
Zn7 O3_2 1_555 1_555
O12_2 Zn3_3 1_555 1_555
O15_2 Zn7 1_555 1_555
O16_2 Zn7 1_555 1_555
C3_3 H1_3 1_555 1_555
O4_2 C10_2 1_555 1_555
O5_2 C10_2 1_555 1_555
C6_3 C1_3 1_555 1_555
C7_2 C8_3 1_555 1_555
C8_3 H3_3 1_555 1_555
C9_2 C6_3 1_555 1_555
H4_2 C9_2 1_555 1_555
C10_2 C7_2 1_555 1_555
O6_2 C13_2 1_555 1_555
O7_2 C13_2 1_555 1_555
C11_2 C3_3 1_555 1_555
C12_2 C1_3 1_555 1_555
H5_2 C12_2 1_555 1_555
C13_2 C11_2 1_555 1_555
Zn5 O6_2 1_555 1_555
Zn4 O4_2 1_555 1_555
Zn9_2 O7_2 1_555 1_555
Zn9_3 O5_2 1_555 1_555
C7_2 C9_2 1_555 1_555
C11_2 C12_2 1_555 1_555
O12 C10_3 1_555 1_555
O15_2 C10_3 1_555 1_555
C6_4 C1_4 1_555 1_555
C7_3 C8_4 1_555 1_555
C8_4 H3_4 1_555 1_555
C9_3 C6_4 1_555 1_555
H4_3 C9_3 1_555 1_555
C10_3 C7_3 1_555 1_555
C12_3 C1_4 1_555 1_555
H5_3 C12_3 1_555 1_555
C7_3 C9_3 1_555 1_555
C11_3 C12_3 1_555 1_555
C3_4 H1_4 1_555 1_555
O16_2 C13_3 1_555 1_555
C1_5 C4_3 1_555 1_555
C4_3 C2_3 1_555 1_555
H2_3 C4_3 1_555 1_555
C6_5 C1_5 1_555 1_555
C8_5 H3_5 1_555 1_555
O8_3 C16_3 1_555 1_555
O9_3 C16_3 1_555 1_555
C14_3 C8_5 1_555 1_555
C15_3 C6_5 1_555 1_555
H6_3 C15_3 1_555 1_555
C16_3 C14_3 1_555 1_555
Zn4 O9_3 1_555 1_555
Zn9 O8_3 1_555 1_555
Zn9_2 O1_2 1_555 1_555
C14_3 C15_3 1_555 1_555
Zn4 O2_3 1_555 1_555
O2_3 C5_3 1_555 1_555
O3_3 Zn4 1_555 1_555
C3_5 H1_5 1_555 1_555
Zn9 O3_3 1_555 1_555
O10_2 Zn4 1_555 1_555
O11_2 Zn9 1_555 1_555
O18_2 Zn9 1_555 1_555
O10_2 Zn9_3 1_555 1_555
O15 C10_4 1_555 1_555
C8_6 H3_6 1_555 1_555
C3_6 H1_6 1_555 1_555
C6_6 C1_6 1_555 1_555
C9_4 C6_6 1_555 1_555
H4_4 C9_4 1_555 1_555
O13 C13_4 1_555 1_555
O16 C13_4 1_555 1_555
C11_4 C3_6 1_555 1_555
C12_4 C1_6 1_555 1_555
H5_4 C12_4 1_555 1_555
C13_4 C11_4 1_555 1_555
C7_4 C9_4 1_555 1_555
C11_4 C12_4 1_555 1_555
C8_7 H3_7 1_555 1_555
O9_4 C16_4 1_555 1_555
Zn5 O9_4 1_555 1_555
Zn5 O2_4 1_555 1_555
O11_2 C5_4 1_555 1_555
O2_4 C5_4 1_555 1_555
O3_4 Zn5 1_555 1_555
C1_7 C4_4 1_555 1_555
C2_4 C3_7 1_555 1_555
C3_7 H1_7 1_555 1_555
C4_4 C2_4 1_555 1_555
H2_4 C4_4 1_555 1_555
C5_4 C2_4 1_555 1_555
C6_7 C1_7 1_555 1_555
C15_4 C6_7 1_555 1_555
H6_4 C15_4 1_555 1_555
Zn9_2 O3_4 1_555 1_555
O18_2 Zn5 1_555 1_555
Zn9_3 O8_4 1_555 1_555
C14_4 C15_4 1_555 1_555
C3_8 H1_8 1_555 1_555
C6_8 C1_8 1_555 1_555
C8_8 H3_8 1_555 1_555
C3_9 H1_9 1_555 1_555
C6_9 C1_9 1_555 1_555
C8_9 H3_9 1_555 1_555

#END
