
###############################################################################
#
# This file contains modified crystal structure data generated from the
# MOF subset of the Cambridge Structural Database (CSD) v542 
# hosted by the Cambridge Crystallographic Data Centre (CCDC).
#
# This work is licensed under the Creative Commons
# Attribution-NonCommercial-ShareAlike 4.0 International License.
# To view a copy of this license, visit
# http://creativecommons.org/licenses/by-nc-sa/4.0/
# or send a letter to
# Creative Commons, PO Box 1866, Mountain View, CA 94042, USA.
#
# CIF created using the CSD Python API on 22 February 2021
# The structure has been converted into the P1 space group
# The structure has a 3D framework
# The original CSD entry TIMMOU is in the triclinic crystal system
# The framework has been calculated to contain at least 10.0% void space
# The void calculation uses a probe of radius 1.32A, grid spacing 0.4
#
###############################################################################

data_TIMMOU
_chemical_formula_moiety         '(C52 H32 Co4 N4 O12)n'
_symmetry_cell_setting           triclinic
_symmetry_space_group_name_H-M   'P 1'
_symmetry_Int_Tables_number      1
_space_group_name_Hall           'P 1'
loop_
_symmetry_equiv_pos_site_id
_symmetry_equiv_pos_as_xyz
1 x,y,z
_cell_length_a                   10.4038(5)
_cell_length_b                   11.0448(6)
_cell_length_c                   13.9957(8)
_cell_angle_alpha                102.218(5)
_cell_angle_beta                 106.278(5)
_cell_angle_gamma                106.541(4)
_cell_volume                     1403.68
loop_
_atom_site_label
_atom_site_type_symbol
_atom_site_fract_x
_atom_site_fract_y
_atom_site_fract_z
C19 C 0.0173(4) 0.6760(3) 0.0055(3)
H9 H 0.107204 0.707668 0.000377
N3 N 0.1889(3) 0.2819(2) 0.97771(19)
C27 C 0.0595(4) 0.2417(3) 0.9858(3)
H17 H 0.019751 0.154786 0.985631
C28 C 0.0405(3) 0.4549(3) 0.9954(2)
C30 C 0.1739(4) 0.4943(3) 0.9848(4)
H19 H 0.215303 0.579750 0.982708
C31 C 0.2443(4) 0.4065(3) 0.9773(4)
H20 H 0.334294 0.435180 0.971816
Co11 Co 0.29015(4) 0.15157(4) 0.95817(3)
Co6 Co 0.500000 -0.000000 0.000000
Co6_2 Co 0.500000 -0.000000 1.000000
O15 O 0.4230(2) 0.13955(18) 0.08382(13)
O16 O 0.8739(2) 0.01932(19) 0.10103(16)
O18 O 0.7105(2) 0.11113(19) 0.10892(15)
O19 O 0.5461(2) 0.1117(2) 0.90292(15)
C2 C 0.8371(3) 0.1152(3) 0.13530(19)
C4 C 0.9552(3) 0.2398(2) 0.21184(19)
C15 C 0.9219(3) 0.3457(3) 0.2553(3)
H6 H 0.826201 0.338444 0.236537
O11 O 0.3590(2) 0.1745(2) 0.84597(15)
O12 O 0.5241(3) 0.3493(2) 0.09366(17)
N4 N 0.7166(3) 0.3997(2) 0.58149(17)
C32 C 0.5579(3) 0.2989(3) 0.25357(19)
C34 C 0.4760(3) 0.1610(3) 0.8455(2)
C36 C 0.6535(3) 0.4270(3) 0.3162(2)
H21 H 0.682424 0.490548 0.284601
C37 C 0.5320(3) 0.2116(3) 0.7681(2)
C38 C 0.6469(3) 0.3269(3) 0.6380(2)
C39 C 0.6611(3) 0.3682(3) 0.47326(19)
C40 C 0.7057(3) 0.4612(3) 0.4240(2)
H22 H 0.771065 0.546663 0.464193
C41 C 0.5032(3) 0.2656(3) 0.1376(2)
C42 C 0.5146(3) 0.2058(3) 0.3023(2)
H23 H 0.452025 0.119589 0.261624
C43 C 0.8286(3) 0.5251(3) 0.6472(2)
C44 C 0.9015(3) 0.7482(3) 0.7593(2)
H24 H 0.878025 0.819583 0.786941
C46 C 0.5632(3) 0.2397(3) 0.4105(2)
H26 H 0.530780 0.177060 0.441936
C47 C 0.7932(3) 0.6306(3) 0.6897(2)
H27 H 0.697360 0.622493 0.671569
C48 C 0.6615(3) 0.2081(3) 0.7631(3)
H28 H 0.709826 0.166114 0.803001
C49 C 0.7203(4) 0.2668(4) 0.6991(3)
H29 H 0.808692 0.265852 0.697314
C50 C 0.5140(4) 0.3231(4) 0.6375(3)
H30 H 0.462009 0.358221 0.592920
C51 C 0.4568(3) 0.2672(3) 0.7032(3)
H31 H 0.367564 0.267003 0.703802
C52 C 0.9704(3) 0.5369(3) 0.6733(3)
H32 H 0.993982 0.466768 0.643331
Co6_3 Co 0.500000 1.000000 0.000000
Co8 Co 0.70985(4) 0.84843(4) 0.04183(3)
O1 O 0.5770(2) 0.86045(18) 0.91618(13)
O4 O 0.4539(2) 0.8883(2) 0.09708(15)
O5 O 0.6410(2) 0.8255(2) 0.15403(15)
O6 O 0.4759(3) 0.6507(2) 0.90634(17)
N1 N 0.2834(3) 0.6003(2) 0.41851(17)
N2 N 0.8111(3) 0.7181(2) 0.02229(19)
C1 C 0.4421(3) 0.7011(3) 0.74643(19)
C3 C 0.5240(3) 0.8390(3) 0.1545(2)
C5 C 0.3465(3) 0.5730(3) 0.6838(2)
H1 H 0.317576 0.509452 0.715399
C6 C 0.4680(3) 0.7884(3) 0.2319(2)
C7 C 0.3531(3) 0.6731(3) 0.3620(2)
C8 C 0.3389(3) 0.6318(3) 0.52674(19)
C9 C 0.2943(3) 0.5388(3) 0.5760(2)
H2 H 0.228935 0.453337 0.535807
C10 C 0.4968(3) 0.7344(3) 0.8624(2)
C11 C 0.9405(4) 0.7583(3) 0.0142(3)
H3 H 0.980249 0.845214 0.014369
C12 C 0.4854(3) 0.7942(3) 0.6977(2)
H4 H 0.547975 0.880411 0.738376
C13 C 0.1714(3) 0.4749(3) 0.3528(2)
C14 C 0.0985(3) 0.2518(3) 0.2407(2)
H5 H 0.121975 0.180417 0.213059
C16 C 0.4368(3) 0.7603(3) 0.5895(2)
H7 H 0.469220 0.822940 0.558064
C17 C 0.2068(3) 0.3694(3) 0.3103(2)
H8 H 0.302640 0.377507 0.328431
C18 C 0.9595(3) 0.5451(3) 0.0046(2)
C20 C 0.3385(3) 0.7919(3) 0.2369(3)
H10 H 0.290174 0.833886 0.196999
C21 C 0.2797(4) 0.7332(4) 0.3009(3)
H11 H 0.191308 0.734148 0.302686
C22 C 0.4860(4) 0.6769(4) 0.3625(3)
H12 H 0.537991 0.641779 0.407080
C23 C 0.5432(3) 0.7328(3) 0.2968(3)
H13 H 0.632436 0.732997 0.296198
C24 C 0.0296(3) 0.4631(3) 0.3267(3)
H14 H 0.006018 0.533232 0.356669
C25 C 0.8261(4) 0.5057(3) 0.0152(4)
H15 H 0.784697 0.420250 0.017292
C26 C 0.7557(4) 0.5935(3) 0.0227(4)
H16 H 0.665706 0.564820 0.028184
Co6_4 Co 0.500000 1.000000 1.000000
C29 C 0.9827(4) 0.3240(3) 0.9945(3)
H18 H 0.892796 0.292332 0.999623
O8 O 0.1261(2) 0.98068(19) 0.89897(16)
O9 O 0.2895(2) 0.88887(19) 0.89108(15)
C33 C 0.1629(3) 0.8848(3) 0.86470(19)
C35 C 0.0448(3) 0.7602(2) 0.78816(19)
C45 C 0.0781(3) 0.6543(3) 0.7447(3)
H25 H 0.173799 0.661556 0.763463
loop_
_geom_bond_atom_site_label_1
_geom_bond_atom_site_label_2
_geom_bond_site_symmetry_1
_geom_bond_site_symmetry_2
H9 C19 1_555 1_555
N3 C27 1_555 1_555
C27 H17 1_555 1_555
C30 C28 1_555 1_555
H19 C30 1_555 1_555
C31 N3 1_555 1_555
H20 C31 1_555 1_555
Co11 N3 1_555 1_555
C30 C31 1_555 1_555
O15 Co6 1_555 1_555
O18 Co6 1_555 1_555
O19 Co6_2 1_555 1_555
O16 C2 1_555 1_555
O18 C2 1_555 1_555
C2 C4 1_555 1_555
C15 C4 1_555 1_555
H6 C15 1_555 1_555
Co11 O11 1_555 1_555
O15 C41 1_555 1_555
O19 C34 1_555 1_555
O11 C34 1_555 1_555
O12 C41 1_555 1_555
N4 C38 1_555 1_555
C32 C36 1_555 1_555
C34 C37 1_555 1_555
C36 H21 1_555 1_555
C37 C48 1_555 1_555
C38 C49 1_555 1_555
C39 N4 1_555 1_555
C40 C36 1_555 1_555
H22 C40 1_555 1_555
C41 C32 1_555 1_555
C42 C32 1_555 1_555
H23 C42 1_555 1_555
C43 N4 1_555 1_555
H24 C44 1_555 1_555
C46 C39 1_555 1_555
H26 C46 1_555 1_555
C47 C43 1_555 1_555
H27 C47 1_555 1_555
C48 H28 1_555 1_555
C49 C48 1_555 1_555
H29 C49 1_555 1_555
C50 C38 1_555 1_555
H30 C50 1_555 1_555
C51 C37 1_555 1_555
H31 C51 1_555 1_555
C52 C43 1_555 1_555
H32 C52 1_555 1_555
C39 C40 1_555 1_555
C42 C46 1_555 1_555
C44 C47 1_555 1_555
C50 C51 1_555 1_555
Co6_3 O4 1_555 1_555
Co8 O5 1_555 1_555
O1 C10 1_555 1_555
O4 C3 1_555 1_555
O5 C3 1_555 1_555
O6 C10 1_555 1_555
N1 C7 1_555 1_555
N2 Co8 1_555 1_555
C1 C5 1_555 1_555
C3 C6 1_555 1_555
C5 H1 1_555 1_555
C6 C20 1_555 1_555
C7 C21 1_555 1_555
C8 N1 1_555 1_555
C9 C5 1_555 1_555
H2 C9 1_555 1_555
C10 C1 1_555 1_555
C11 N2 1_555 1_555
H3 C11 1_555 1_555
C12 C1 1_555 1_555
H4 C12 1_555 1_555
C13 N1 1_555 1_555
C14 H5 1_555 1_555
C16 C8 1_555 1_555
H7 C16 1_555 1_555
C17 C13 1_555 1_555
H8 C17 1_555 1_555
C20 H10 1_555 1_555
C21 C20 1_555 1_555
H11 C21 1_555 1_555
C22 C7 1_555 1_555
H12 C22 1_555 1_555
C23 C6 1_555 1_555
H13 C23 1_555 1_555
C24 C13 1_555 1_555
H14 C24 1_555 1_555
C25 C18 1_555 1_555
H15 C25 1_555 1_555
C26 N2 1_555 1_555
H16 C26 1_555 1_555
Co6_4 O1 1_555 1_555
C8 C9 1_555 1_555
C12 C16 1_555 1_555
C14 C17 1_555 1_555
C22 C23 1_555 1_555
C25 C26 1_555 1_555
H18 C29 1_555 1_555
O8 C33 1_555 1_555
O9 Co6_4 1_555 1_555
C33 O9 1_555 1_555
C35 C33 1_555 1_555
C45 C35 1_555 1_555
H25 C45 1_555 1_555

#END
