
###############################################################################
#
# This file contains modified crystal structure data generated from the
# MOF subset of the Cambridge Structural Database (CSD) v542 
# hosted by the Cambridge Crystallographic Data Centre (CCDC).
#
# This work is licensed under the Creative Commons
# Attribution-NonCommercial-ShareAlike 4.0 International License.
# To view a copy of this license, visit
# http://creativecommons.org/licenses/by-nc-sa/4.0/
# or send a letter to
# Creative Commons, PO Box 1866, Mountain View, CA 94042, USA.
#
# CIF created using the CSD Python API on 22 February 2021
# The structure has been converted into the P1 space group
# The structure has a 3D framework
# The original CSD entry TUMWUW is in the monoclinic crystal system
# The framework has been calculated to contain at least 10.0% void space
# The void calculation uses a probe of radius 1.32A, grid spacing 0.4
#
###############################################################################

data_TUMWUW
_chemical_formula_moiety         '(C52 H40 N28 O28 Zn14)n'
_symmetry_cell_setting           triclinic
_symmetry_space_group_name_H-M   'P 1'
_symmetry_Int_Tables_number      1
_space_group_name_Hall           'P 1'
loop_
_symmetry_equiv_pos_site_id
_symmetry_equiv_pos_as_xyz
1 x,y,z
_cell_length_a                   11.2416(2)
_cell_length_b                   18.15400(11)
_cell_length_c                   12.2397(2)
_cell_angle_alpha                90
_cell_angle_beta                 108.553(2)
_cell_angle_gamma                90
_cell_volume                     2368.06
loop_
_atom_site_label
_atom_site_type_symbol
_atom_site_fract_x
_atom_site_fract_y
_atom_site_fract_z
Zn11 Zn 0.000000 0.500000 0.000000
Zn11_2 Zn 0.000000 0.500000 1.000000
Zn9 Zn 0.73371(5) 0.52182(3) 0.09092(5)
Zn11_3 Zn 1.000000 0.500000 0.000000
O16 O 0.3588(4) 0.5135(2) 0.0601(3)
Zn1 Zn 0.26629(5) 0.47818(3) 0.90908(5)
Zn3 Zn 0.08276(6) 0.32761(3) 0.44067(5)
O1 O 0.3683(4) 0.4767(2) 0.8104(3)
O2 O 0.4541(4) 0.3733(2) 0.8931(3)
O3 O 0.6412(4) 0.4865(2) 0.9399(3)
O4 O 0.8160(4) 0.4722(3) 0.8972(3)
O5 O 0.2507(4) 0.3649(3) 0.4858(3)
H1 H 0.044461 0.341616 0.625201
O7 O 0.2730(4) 0.3384(3) 0.6645(4)
N3 N 0.0002(4) 0.3836(3) 0.3011(4)
C2 C 0.0498(5) 0.4038(3) 0.2202(5)
H4 H 0.129028 0.389570 0.219606
C5 C 0.3118(6) 0.3640(3) 0.5907(5)
C6 C 0.4410(5) 0.3951(3) 0.6216(4)
C7 C 0.4975(5) 0.3991(3) 0.5374(5)
H7 H 0.454987 0.383663 0.462697
C8 C 0.6162(5) 0.4258(3) 0.5648(4)
C9 C 0.6829(5) 0.4475(3) 0.6719(5)
H8 H 0.764919 0.464175 0.688317
C10 C 0.6264(5) 0.4443(3) 0.7569(4)
C11 C 0.5039(5) 0.4194(3) 0.7313(4)
C12 C 0.4378(5) 0.4214(3) 0.8203(4)
C13 C 0.7017(5) 0.4696(3) 0.8741(5)
N7 N 0.6759(5) 0.4302(3) 0.4745(4)
H9 H 0.616729 0.428190 0.405982
H10 H 0.717249 0.472680 0.481043
H15 H 0.053158 0.677049 0.030170
Zn11_4 Zn 1.000000 0.500000 1.000000
O18 O 0.1840(4) 0.5278(3) 0.1028(3)
N16 N 0.1290(4) 0.5465(3) 0.8261(4)
N17 N 0.1727(4) 0.3893(3) 0.9248(4)
N20 N 0.0918(5) 0.2193(3) 0.4272(4)
N4 N 0.0656(4) 0.3982(3) 0.9529(4)
N6 N 0.0918(5) 0.2807(3) 0.9272(4)
C3 C 0.0205(6) 0.3328(3) 0.9533(6)
C4 C 0.1855(6) 0.3192(3) 0.9106(5)
H6 H 0.251730 0.298512 0.891243
O13 O 0.0059(6) 0.6549(3) 0.4471(5)
N9 N 0.0247(4) 0.5545(3) 0.8573(4)
C14 C 0.1104(5) 0.5836(3) 0.7323(5)
H13 H 0.168391 0.586832 0.692656
Zn13 Zn 0.08276(6) 0.17239(3) 0.94067(5)
O6 O 0.9941(6) 0.3451(3) 0.5529(5)
N1 N 0.8710(4) 0.4535(3) 0.1739(4)
N2 N 0.9753(4) 0.4455(3) 0.1427(4)
C1 C 0.8896(5) 0.4164(3) 0.2677(5)
H3 H 0.831609 0.413168 0.307344
N11 N 0.9344(4) 0.6018(3) 0.0471(4)
N12 N 0.8273(4) 0.6107(3) 0.0752(4)
N13 N 0.9082(5) 0.7193(3) 0.0728(4)
C16 C 0.9795(6) 0.6672(3) 0.0467(6)
C17 C 0.8145(6) 0.6808(3) 0.0894(5)
H16 H 0.748270 0.701488 0.108757
Zn12 Zn 0.91724(6) 0.82761(3) 0.05933(5)
H5 H 0.946842 0.322951 0.969830
Zn5 Zn 0.91724(6) 0.67239(3) 0.55933(5)
O8 O 0.6317(4) 0.5233(2) 0.1896(3)
O9 O 0.5459(4) 0.6267(2) 0.1069(3)
O12 O 0.7493(4) 0.6351(3) 0.5142(3)
H11 H 0.955539 0.658384 0.374799
O14 O 0.7270(4) 0.6616(3) 0.3355(4)
N10 N 0.9998(4) 0.6164(3) 0.6989(4)
C15 C 0.9502(5) 0.5962(3) 0.7798(5)
H14 H 0.870972 0.610430 0.780394
C18 C 0.6882(6) 0.6360(3) 0.4093(5)
C19 C 0.5590(5) 0.6049(3) 0.3784(4)
C20 C 0.5025(5) 0.6009(3) 0.4626(5)
H17 H 0.545013 0.616337 0.537303
C21 C 0.3838(5) 0.5742(3) 0.4352(4)
C22 C 0.3171(5) 0.5525(3) 0.3281(5)
H18 H 0.235081 0.535825 0.311683
C23 C 0.3736(5) 0.5557(3) 0.2431(4)
C24 C 0.4961(5) 0.5806(3) 0.2687(4)
C25 C 0.5622(5) 0.5786(3) 0.1797(4)
C26 C 0.2983(5) 0.5304(3) 0.1259(5)
N14 N 0.3241(5) 0.5698(3) 0.5255(4)
H19 H 0.383271 0.571810 0.594018
H20 H 0.282751 0.527320 0.518957
N19 N 0.9082(5) 0.7807(3) 0.5728(4)
Zn10 Zn 0.000000 -0.000000 0.500000
Zn10_2 Zn 0.000000 1.000000 0.500000
Zn4 Zn 0.26629(5) 0.02182(3) 0.40908(5)
O8_2 O 0.3683(4) 0.0233(2) 0.3104(3)
O9_2 O 0.4541(4) 0.1267(2) 0.3931(3)
O10 O 0.6412(4) 0.0135(2) 0.4399(3)
O11 O 0.8160(4) 0.0278(3) 0.3972(3)
H11_2 H 0.044461 0.158384 0.125201
O14_2 O 0.2730(4) 0.1616(3) 0.1645(4)
C18_2 C 0.3118(6) 0.1360(3) 0.0907(5)
C19_2 C 0.4410(5) 0.1049(3) 0.1216(4)
C20_2 C 0.4975(5) 0.1009(3) 0.0374(5)
C21_2 C 0.6162(5) 0.0742(3) 0.0648(4)
C22_2 C 0.6829(5) 0.0525(3) 0.1719(5)
H18_2 H 0.764919 0.035825 0.188317
C23_2 C 0.6264(5) 0.0557(3) 0.2569(4)
C24_2 C 0.5039(5) 0.0806(3) 0.2313(4)
C25_2 C 0.4378(5) 0.0786(3) 0.3203(4)
C26_2 C 0.7017(5) 0.0304(3) 0.3741(5)
Zn10_3 Zn 1.000000 -0.000000 0.500000
N18 N 0.1727(4) 0.1107(3) 0.4248(4)
O12_2 O 0.2507(4) 0.1351(3) 0.9858(3)
N10_2 N 0.0002(4) 0.1164(3) 0.8011(4)
N11_2 N 0.0656(4) 0.1018(3) 0.4529(4)
C15_2 C 0.0498(5) 0.0962(3) 0.7202(5)
H14_2 H 0.129028 0.110430 0.719606
C16_2 C 0.0205(6) 0.1672(3) 0.4533(6)
C17_2 C 0.1855(6) 0.1808(3) 0.4106(5)
H16_2 H 0.251730 0.201488 0.391243
H17_2 H 0.454987 0.116337 0.962697
N14_2 N 0.6759(5) 0.0698(3) 0.9745(4)
H19_2 H 0.616729 0.071810 0.905982
H20_2 H 0.717249 0.027320 0.981043
Zn6 Zn 0.73371(5) 0.97818(3) 0.59092(5)
Zn10_4 Zn 1.000000 1.000000 0.500000
O15 O 0.3588(4) 0.9865(2) 0.5601(3)
N15 N 0.1290(4) 0.9535(3) 0.3261(4)
N2_2 N 0.0247(4) 0.9455(3) 0.3573(4)
C1_2 C 0.1104(5) 0.9164(3) 0.2323(5)
H3_2 H 0.168391 0.913168 0.192656
H5_2 H 0.053158 0.822951 0.530170
O17 O 0.1840(4) 0.9722(3) 0.6028(3)
N8 N 0.8710(4) 0.0465(3) 0.6739(4)
N9_2 N 0.9753(4) 0.0545(3) 0.6427(4)
C14_2 C 0.8896(5) 0.0836(3) 0.7677(5)
H13_2 H 0.831609 0.086832 0.807344
H15_2 H 0.946842 0.177049 0.469830
O5_2 O 0.7493(4) 0.8649(3) 0.0142(3)
N3_2 N 0.9998(4) 0.8836(3) 0.1989(4)
N4_2 N 0.9344(4) 0.8982(3) 0.5471(4)
N5 N 0.8273(4) 0.8893(3) 0.5752(4)
C2_2 C 0.9502(5) 0.9038(3) 0.2798(5)
H4_2 H 0.870972 0.889570 0.280394
C3_2 C 0.9795(6) 0.8328(3) 0.5467(6)
C4_2 C 0.8145(6) 0.8192(3) 0.5894(5)
H6_2 H 0.748270 0.798512 0.608757
H7_2 H 0.545013 0.883663 0.037303
N7_2 N 0.3241(5) 0.9302(3) 0.0255(4)
H9_2 H 0.383271 0.928190 0.094018
H10_2 H 0.282751 0.972680 0.018957
O1_2 O 0.6317(4) 0.9767(2) 0.6896(3)
O2_2 O 0.5459(4) 0.8733(2) 0.6069(3)
H1_2 H 0.955539 0.841616 0.874799
O7_2 O 0.7270(4) 0.8384(3) 0.8355(4)
C5_2 C 0.6882(6) 0.8640(3) 0.9093(5)
C6_2 C 0.5590(5) 0.8951(3) 0.8784(4)
C7_2 C 0.5025(5) 0.8991(3) 0.9626(5)
C8_2 C 0.3838(5) 0.9258(3) 0.9352(4)
C9_2 C 0.3171(5) 0.9475(3) 0.8281(5)
H8_2 H 0.235081 0.964175 0.811683
C10_2 C 0.3736(5) 0.9443(3) 0.7431(4)
C11_2 C 0.4961(5) 0.9194(3) 0.7687(4)
C12_2 C 0.5622(5) 0.9214(3) 0.6797(4)
C13_2 C 0.2983(5) 0.9696(3) 0.6259(5)
O6_2 O 0.0059(6) 0.8451(3) 0.9471(5)
O13_2 O 0.9941(6) 0.1549(3) 0.0529(5)
loop_
_geom_bond_atom_site_label_1
_geom_bond_atom_site_label_2
_geom_bond_site_symmetry_1
_geom_bond_site_symmetry_2
Zn1 O1 1_555 1_555
Zn3 O5 1_555 1_555
O1 C12 1_555 1_555
O2 C12 1_555 1_555
O3 C13 1_555 1_555
O4 C13 1_555 1_555
O5 C5 1_555 1_555
O7 C5 1_555 1_555
N3 Zn3 1_555 1_555
C2 N3 1_555 1_555
H4 C2 1_555 1_555
C5 C6 1_555 1_555
C6 C7 1_555 1_555
C7 H7 1_555 1_555
C8 C7 1_555 1_555
C9 C8 1_555 1_555
H8 C9 1_555 1_555
C10 C9 1_555 1_555
C11 C6 1_555 1_555
C12 C11 1_555 1_555
C13 C10 1_555 1_555
N7 C8 1_555 1_555
H9 N7 1_555 1_555
H10 N7 1_555 1_555
Zn11_4 O4 1_555 1_555
O18 Zn11 1_555 1_555
N16 Zn1 1_555 1_555
N17 Zn1 1_555 1_555
N20 Zn3 1_555 1_555
C10 C11 1_555 1_555
N4 Zn11_2 1_555 1_555
N17 N4 1_555 1_555
N6 C3 1_555 1_555
C3 N4 1_555 1_555
C4 N17 1_555 1_555
H6 C4 1_555 1_555
N16 N9 1_555 1_555
N9 Zn11_2 1_555 1_555
C14 N16 1_555 1_555
H13 C14 1_555 1_555
Zn13 N6 1_555 1_555
N6 C4 1_555 1_555
Zn11_3 N2 1_555 1_555
N1 N2 1_555 1_555
C1 N1 1_555 1_555
H3 C1 1_555 1_555
N11 Zn11_3 1_555 1_555
N12 N11 1_555 1_555
N13 C16 1_555 1_555
C16 N11 1_555 1_555
C17 N12 1_555 1_555
H16 C17 1_555 1_555
Zn9 N1 1_555 1_555
Zn12 N13 1_555 1_555
N12 Zn9 1_555 1_555
N13 C17 1_555 1_555
Zn9 O8 1_555 1_555
Zn5 O12 1_555 1_555
O8 C25 1_555 1_555
O9 C25 1_555 1_555
O16 C26 1_555 1_555
O18 C26 1_555 1_555
O12 C18 1_555 1_555
O14 C18 1_555 1_555
N10 Zn5 1_555 1_555
H14 C15 1_555 1_555
C18 C19 1_555 1_555
C19 C20 1_555 1_555
C20 H17 1_555 1_555
C21 C20 1_555 1_555
C22 C21 1_555 1_555
H18 C22 1_555 1_555
C23 C22 1_555 1_555
C24 C19 1_555 1_555
C25 C24 1_555 1_555
C26 C23 1_555 1_555
N14 C21 1_555 1_555
H19 N14 1_555 1_555
H20 N14 1_555 1_555
N19 Zn5 1_555 1_555
N10 C15 1_555 1_555
C23 C24 1_555 1_555
Zn4 O8_2 1_555 1_555
O8_2 C25_2 1_555 1_555
O9_2 C25_2 1_555 1_555
O10 C26_2 1_555 1_555
O11 C26_2 1_555 1_555
O14_2 C18_2 1_555 1_555
C18_2 C19_2 1_555 1_555
C19_2 C20_2 1_555 1_555
C21_2 C20_2 1_555 1_555
C22_2 C21_2 1_555 1_555
H18_2 C22_2 1_555 1_555
C23_2 C22_2 1_555 1_555
C24_2 C19_2 1_555 1_555
C25_2 C24_2 1_555 1_555
C26_2 C23_2 1_555 1_555
Zn10_3 O11 1_555 1_555
N18 Zn4 1_555 1_555
C23_2 C24_2 1_555 1_555
Zn13 O12_2 1_555 1_555
N10_2 Zn13 1_555 1_555
N11_2 Zn10 1_555 1_555
N18 N11_2 1_555 1_555
N20 C16_2 1_555 1_555
H14_2 C15_2 1_555 1_555
C16_2 N11_2 1_555 1_555
C17_2 N18 1_555 1_555
H16_2 C17_2 1_555 1_555
H19_2 N14_2 1_555 1_555
H20_2 N14_2 1_555 1_555
N10_2 C15_2 1_555 1_555
N20 C17_2 1_555 1_555
Zn10_2 N2_2 1_555 1_555
N15 N2_2 1_555 1_555
C1_2 N15 1_555 1_555
H3_2 C1_2 1_555 1_555
O17 Zn10_2 1_555 1_555
N8 N9_2 1_555 1_555
N9_2 Zn10_3 1_555 1_555
C14_2 N8 1_555 1_555
H13_2 C14_2 1_555 1_555
Zn12 O5_2 1_555 1_555
N3_2 Zn12 1_555 1_555
N4_2 Zn10_4 1_555 1_555
N5 N4_2 1_555 1_555
N19 C3_2 1_555 1_555
C2_2 N3_2 1_555 1_555
H4_2 C2_2 1_555 1_555
C3_2 N4_2 1_555 1_555
C4_2 N5 1_555 1_555
H6_2 C4_2 1_555 1_555
H9_2 N7_2 1_555 1_555
H10_2 N7_2 1_555 1_555
Zn6 N5 1_555 1_555
N19 C4_2 1_555 1_555
Zn6 O1_2 1_555 1_555
O1_2 C12_2 1_555 1_555
O2_2 C12_2 1_555 1_555
O15 C13_2 1_555 1_555
O17 C13_2 1_555 1_555
O7_2 C5_2 1_555 1_555
C5_2 C6_2 1_555 1_555
C6_2 C7_2 1_555 1_555
C8_2 C7_2 1_555 1_555
C9_2 C8_2 1_555 1_555
H8_2 C9_2 1_555 1_555
C10_2 C9_2 1_555 1_555
C11_2 C6_2 1_555 1_555
C12_2 C11_2 1_555 1_555
C13_2 C10_2 1_555 1_555
C10_2 C11_2 1_555 1_555

#END
