
###############################################################################
#
# This file contains modified crystal structure data generated from the
# MOF subset of the Cambridge Structural Database (CSD) v542 
# hosted by the Cambridge Crystallographic Data Centre (CCDC).
#
# This work is licensed under the Creative Commons
# Attribution-NonCommercial-ShareAlike 4.0 International License.
# To view a copy of this license, visit
# http://creativecommons.org/licenses/by-nc-sa/4.0/
# or send a letter to
# Creative Commons, PO Box 1866, Mountain View, CA 94042, USA.
#
# CIF created using the CSD Python API on 22 February 2021
# The structure has been converted into the P1 space group
# The structure has a 3D framework
# The original CSD entry UGURUM is in the monoclinic crystal system
# The framework has been calculated to contain at least 10.0% void space
# The void calculation uses a probe of radius 1.32A, grid spacing 0.4
#
###############################################################################

data_UGURUM
_chemical_formula_moiety         '(C112 H72 N32 O38 Zn8)n'
_symmetry_cell_setting           triclinic
_symmetry_space_group_name_H-M   'P 1'
_symmetry_Int_Tables_number      1
_space_group_name_Hall           'P 1'
loop_
_symmetry_equiv_pos_site_id
_symmetry_equiv_pos_as_xyz
1 x,y,z
_cell_length_a                   13.461(3)
_cell_length_b                   12.985(5)
_cell_length_c                   19.267(9)
_cell_angle_alpha                90
_cell_angle_beta                 101.39(2)
_cell_angle_gamma                90
_cell_volume                     3301.38
loop_
_atom_site_label
_atom_site_type_symbol
_atom_site_fract_x
_atom_site_fract_y
_atom_site_fract_z
H6 H 0.4210 0.1271 0.0170
N5 N 0.0604(4) 0.0706(4) 0.1294(2)
C15 C 0.1123(5) 0.0592(5) 0.0759(3)
H11 H 0.1695 0.0195 0.0747
N7 N 0.0749(4) 0.0674(4) 0.3809(2)
C16 C 0.1443(4) 0.0819(5) 0.4406(3)
H12 H 0.2123 0.0632 0.4497
C19 C 0.0938(5) 0.0222(5) 0.1966(3)
C20 C 0.0698(5) 0.0673(4) 0.2554(3)
H13 H 0.0340 0.1290 0.2517
C21 C 0.0996(4) 0.0199(4) 0.3205(3)
C24 C 0.0612(5) 0.1181(5) 0.0268(3)
C26 C 0.0941(5) 0.1282(5) 0.4826(3)
H17 H 0.1232 0.1488 0.5283
Zn5 Zn 0.62108(5) 0.26995(5) 0.01665(3)
N1 N 0.4396(4) 0.0706(4) 0.8706(2)
C1 C 0.3877(5) 0.0592(5) 0.9241(3)
H2 H 0.3305 0.0195 0.9253
N2 N 0.5190(4) 0.1649(4) 0.9557(2)
N3 N 0.4251(4) 0.0674(4) 0.6191(2)
C2 C 0.3557(4) 0.0819(5) 0.5594(3)
H3 H 0.2877 0.0632 0.5503
N4 N 0.5030(4) 0.1432(4) 0.5463(2)
C5 C 0.4062(5) 0.0222(5) 0.8034(3)
C6 C 0.4302(5) 0.0673(4) 0.7446(3)
H4 H 0.4660 0.1290 0.7483
C7 C 0.4004(4) 0.0199(4) 0.6795(3)
C10 C 0.4388(5) 0.1181(5) 0.9732(3)
C11 C 0.5169(5) 0.1333(5) 0.8903(3)
H7 H 0.5629 0.1524 0.8625
C12 C 0.4059(5) 0.1282(5) 0.5174(3)
H8 H 0.3768 0.1488 0.4717
C13 C 0.5131(5) 0.1041(5) 0.6099(3)
H9 H 0.5730 0.1024 0.6435
H15 H 0.0790 0.1271 0.9830
Zn4 Zn 0.62108(5) 0.23005(5) 0.51665(3)
O2 O 0.2500 0.8192(4) 0.0000
Zn2 Zn 0.12108(5) 0.73005(5) 0.01665(3)
O6 O 0.1116(3) 0.8274(3) 0.10351(18)
O7 O 0.2689(3) 0.8860(4) 0.1308(2)
O8 O 0.2820(3) 0.8609(3) 0.41457(19)
O9 O 0.1211(3) 0.8498(3) 0.42554(19)
C17 C 0.1802(5) 0.8790(5) 0.1394(3)
C18 C 0.1538(4) 0.9371(4) 0.2015(3)
C22 C 0.1600(4) 0.9341(4) 0.3278(3)
C23 C 0.1867(5) 0.8943(5) 0.2688(3)
H14 H 0.2283 0.8365 0.2733
C28 C 0.1911(4) 0.8772(4) 0.3970(3)
Zn8 Zn 0.12108(5) 0.76995(5) 0.51665(3)
Zn10 Zn 0.37892(5) 0.76995(5) 0.48335(3)
O11 O 0.2180(3) 0.6391(3) 0.08543(19)
O13 O 0.3789(3) 0.6502(3) 0.07446(19)
N9 N 0.4810(4) 0.8351(4) 0.0443(2)
N11 N 0.0030(4) 0.6432(4) 0.0463(2)
Zn1 Zn 0.37892(5) 0.73005(5) 0.98335(3)
O1 O 0.3884(3) 0.8274(3) 0.89649(18)
O2_2 O 0.2500 0.8192(4) 1.0000
O3 O 0.2311(3) 0.8860(4) 0.8692(2)
O4 O 0.2180(3) 0.8609(3) 0.58543(19)
O5 O 0.3789(3) 0.8498(3) 0.57446(19)
C3 C 0.3198(5) 0.8790(5) 0.8606(3)
C4 C 0.3462(4) 0.9371(4) 0.7985(3)
C8 C 0.3400(4) 0.9341(4) 0.6722(3)
C9 C 0.3133(5) 0.8943(5) 0.7312(3)
H5 H 0.2717 0.8365 0.7267
C14 C 0.3089(4) 0.8772(4) 0.6030(3)
O10 O 0.2820(3) 0.6391(3) 0.91457(19)
O12 O 0.1211(3) 0.6502(3) 0.92554(19)
N10 N 0.0190(4) 0.8351(4) 0.9557(2)
N12 N 0.4970(4) 0.6432(4) 0.9537(2)
N6 N 0.9810(4) 0.1649(4) 0.0443(2)
N8 N 0.9970(4) 0.1432(4) 0.4537(2)
C25 C 0.9831(5) 0.1333(5) 0.1097(3)
H16 H 0.9371 0.1524 0.1375
C27 C 0.9869(5) 0.1041(5) 0.3901(3)
H18 H 0.9270 0.1024 0.3565
Zn3 Zn 0.87892(5) 0.23005(5) 0.48335(3)
Zn6 Zn 0.87892(5) 0.26995(5) 0.98335(3)
N2_2 N 0.0190(4) 0.6649(4) 0.4557(2)
C11_2 C 0.0169(5) 0.6333(5) 0.3903(3)
H7_2 H 0.0629 0.6524 0.3625
C13_2 C 0.0131(5) 0.6041(5) 0.1099(3)
H9_2 H 0.0730 0.6024 0.1435
H17_2 H 0.6232 0.6488 0.0283
O1_2 O 0.8884(3) 0.3274(3) 0.39649(18)
O2_3 O 0.7500 0.3192(4) 0.5000
O3_2 O 0.7311(3) 0.3860(4) 0.3692(2)
O4_2 O 0.7180(3) 0.3609(3) 0.08543(19)
O5_2 O 0.8789(3) 0.3498(3) 0.07446(19)
N1_2 N 0.9396(4) 0.5706(4) 0.3706(2)
C1_2 C 0.8877(5) 0.5592(5) 0.4241(3)
H2_2 H 0.8305 0.5195 0.4253
N3_2 N 0.9251(4) 0.5674(4) 0.1191(2)
C2_2 C 0.8557(4) 0.5819(5) 0.0594(3)
H3_2 H 0.7877 0.5632 0.0503
C3_2 C 0.8198(5) 0.3790(5) 0.3606(3)
C4_2 C 0.8462(4) 0.4371(4) 0.2985(3)
C5_2 C 0.9062(5) 0.5222(5) 0.3034(3)
C6_2 C 0.9302(5) 0.5673(4) 0.2446(3)
H4_2 H 0.9660 0.6290 0.2483
C7_2 C 0.9004(4) 0.5199(4) 0.1795(3)
C8_2 C 0.8400(4) 0.4341(4) 0.1722(3)
C9_2 C 0.8133(5) 0.3943(5) 0.2312(3)
H5_2 H 0.7717 0.3365 0.2267
C10_2 C 0.9388(5) 0.6181(5) 0.4732(3)
H6_2 H 0.9210 0.6271 0.5170
C12_2 C 0.9059(5) 0.6282(5) 0.0174(3)
C14_2 C 0.8089(4) 0.3772(4) 0.1030(3)
O6_2 O 0.6116(3) 0.3274(3) 0.60351(18)
O7_2 O 0.7689(3) 0.3860(4) 0.6308(2)
O8_2 O 0.7820(3) 0.3609(3) 0.91457(19)
O9_2 O 0.6211(3) 0.3498(3) 0.92554(19)
N5_2 N 0.5604(4) 0.5706(4) 0.6294(2)
C15_2 C 0.6123(5) 0.5592(5) 0.5759(3)
H11_2 H 0.6695 0.5195 0.5747
N6_2 N 0.4810(4) 0.6649(4) 0.5443(2)
N7_2 N 0.5749(4) 0.5674(4) 0.8809(2)
C16_2 C 0.6443(4) 0.5819(5) 0.9406(3)
H12_2 H 0.7123 0.5632 0.9497
C17_2 C 0.6802(5) 0.3790(5) 0.6394(3)
C18_2 C 0.6538(4) 0.4371(4) 0.7015(3)
C19_2 C 0.5938(5) 0.5222(5) 0.6966(3)
C20_2 C 0.5698(5) 0.5673(4) 0.7554(3)
H13_2 H 0.5340 0.6290 0.7517
C21_2 C 0.5996(4) 0.5199(4) 0.8205(3)
C22_2 C 0.6600(4) 0.4341(4) 0.8278(3)
C23_2 C 0.6867(5) 0.3943(5) 0.7688(3)
H14_2 H 0.7283 0.3365 0.7733
C24_2 C 0.5612(5) 0.6181(5) 0.5268(3)
H15_2 H 0.5790 0.6271 0.4830
C25_2 C 0.4831(5) 0.6333(5) 0.6097(3)
H16_2 H 0.4371 0.6524 0.6375
C26_2 C 0.5941(5) 0.6282(5) 0.9826(3)
C27_2 C 0.4869(5) 0.6041(5) 0.8901(3)
H18_2 H 0.4270 0.6024 0.8565
C28_2 C 0.6911(4) 0.3772(4) 0.8970(3)
O10_2 O 0.7820(3) 0.1391(3) 0.41457(19)
O11_2 O 0.7180(3) 0.1391(3) 0.58543(19)
O12_2 O 0.6211(3) 0.1502(3) 0.42554(19)
O13_2 O 0.8789(3) 0.1502(3) 0.57446(19)
N9_2 N 0.9810(4) 0.3351(4) 0.5443(2)
N10_2 N 0.5190(4) 0.3351(4) 0.4557(2)
H8_2 H 0.8768 0.6488 0.9717
N8_2 N 0.0030(4) 0.8568(4) 0.5463(2)
C25_3 C 0.0169(5) 0.8667(5) 0.8903(3)
H16_3 H 0.0629 0.8476 0.8625
C27_3 C 0.0131(5) 0.8959(5) 0.6099(3)
H18_3 H 0.0730 0.8976 0.6435
O1_3 O 0.6116(3) 0.1726(3) 0.10351(18)
O2_4 O 0.7500 0.1808(4) 0.0000
O3_3 O 0.7689(3) 0.1140(4) 0.1308(2)
C3_3 C 0.6802(5) 0.1210(5) 0.1394(3)
C4_3 C 0.6538(4) 0.0629(4) 0.2015(3)
C8_3 C 0.6600(4) 0.0659(4) 0.3278(3)
C9_3 C 0.6867(5) 0.1057(5) 0.2688(3)
H5_3 H 0.7283 0.1635 0.2733
C14_3 C 0.6911(4) 0.1228(4) 0.3970(3)
N12_2 N 0.5030(4) 0.3568(4) 0.0463(2)
O2_5 O 0.7500 0.1808(4) 1.0000
O6_3 O 0.8884(3) 0.1726(3) 0.89649(18)
O7_3 O 0.7311(3) 0.1140(4) 0.8692(2)
C17_3 C 0.8198(5) 0.1210(5) 0.8606(3)
C18_3 C 0.8462(4) 0.0629(4) 0.7985(3)
C22_3 C 0.8400(4) 0.0659(4) 0.6722(3)
C23_3 C 0.8133(5) 0.1057(5) 0.7312(3)
H14_3 H 0.7717 0.1635 0.7267
C28_3 C 0.8089(4) 0.1228(4) 0.6030(3)
N11_2 N 0.9970(4) 0.3568(4) 0.9537(2)
N1_3 N 0.5604(4) 0.9294(4) 0.1294(2)
C1_3 C 0.6123(5) 0.9408(5) 0.0759(3)
H2_3 H 0.6695 0.9805 0.0747
N3_3 N 0.5749(4) 0.9326(4) 0.3809(2)
C2_3 C 0.6443(4) 0.9181(5) 0.4406(3)
H3_3 H 0.7123 0.9368 0.4497
N4_2 N 0.4970(4) 0.8568(4) 0.4537(2)
C5_3 C 0.5938(5) 0.9778(5) 0.1966(3)
C6_3 C 0.5698(5) 0.9327(4) 0.2554(3)
H4_3 H 0.5340 0.8710 0.2517
C7_3 C 0.5996(4) 0.9801(4) 0.3205(3)
C10_3 C 0.5612(5) 0.8819(5) 0.0268(3)
C11_3 C 0.4831(5) 0.8667(5) 0.1097(3)
H7_3 H 0.4371 0.8476 0.1375
C12_3 C 0.5941(5) 0.8718(5) 0.4826(3)
H8_3 H 0.6232 0.8512 0.5283
C13_3 C 0.4869(5) 0.8959(5) 0.3901(3)
H9_3 H 0.4270 0.8976 0.3565
H15_3 H 0.9210 0.8729 0.0170
H6_3 H 0.5790 0.8729 0.9830
N5_3 N 0.9396(4) 0.9294(4) 0.8706(2)
C15_3 C 0.8877(5) 0.9408(5) 0.9241(3)
H11_3 H 0.8305 0.9805 0.9253
N7_3 N 0.9251(4) 0.9326(4) 0.6191(2)
C16_3 C 0.8557(4) 0.9181(5) 0.5594(3)
H12_3 H 0.7877 0.9368 0.5503
C19_3 C 0.9062(5) 0.9778(5) 0.8034(3)
C20_3 C 0.9302(5) 0.9327(4) 0.7446(3)
H13_3 H 0.9660 0.8710 0.7483
C21_3 C 0.9004(4) 0.9801(4) 0.6795(3)
C24_3 C 0.9388(5) 0.8819(5) 0.9732(3)
C26_3 C 0.9059(5) 0.8718(5) 0.5174(3)
H17_3 H 0.8768 0.8512 0.4717
H8_4 H 0.1232 0.3512 0.0283
O1_4 O 0.1116(3) 0.6726(3) 0.60351(18)
O2_6 O 0.2500 0.6808(4) 0.5000
O3_4 O 0.2689(3) 0.6140(4) 0.6308(2)
N1_4 N 0.0604(4) 0.4294(4) 0.6294(2)
C1_4 C 0.1123(5) 0.4408(5) 0.5759(3)
H2_4 H 0.1695 0.4805 0.5747
N3_4 N 0.0749(4) 0.4326(4) 0.8809(2)
C2_4 C 0.1443(4) 0.4181(5) 0.9406(3)
H3_4 H 0.2123 0.4368 0.9497
C3_4 C 0.1802(5) 0.6210(5) 0.6394(3)
C4_4 C 0.1538(4) 0.5629(4) 0.7015(3)
C5_4 C 0.0938(5) 0.4778(5) 0.6966(3)
C6_4 C 0.0698(5) 0.4327(4) 0.7554(3)
H4_4 H 0.0340 0.3710 0.7517
C7_4 C 0.0996(4) 0.4801(4) 0.8205(3)
C8_4 C 0.1600(4) 0.5659(4) 0.8278(3)
C9_4 C 0.1867(5) 0.6057(5) 0.7688(3)
H5_4 H 0.2283 0.6635 0.7733
C10_4 C 0.0612(5) 0.3819(5) 0.5268(3)
H6_4 H 0.0790 0.3729 0.4830
C12_4 C 0.0941(5) 0.3718(5) 0.9826(3)
C14_4 C 0.1911(4) 0.6228(4) 0.8970(3)
O6_4 O 0.3884(3) 0.6726(3) 0.39649(18)
O7_4 O 0.2311(3) 0.6140(4) 0.3692(2)
N5_4 N 0.4396(4) 0.4294(4) 0.3706(2)
C15_4 C 0.3877(5) 0.4408(5) 0.4241(3)
H11_4 H 0.3305 0.4805 0.4253
N7_4 N 0.4251(4) 0.4326(4) 0.1191(2)
C16_4 C 0.3557(4) 0.4181(5) 0.0594(3)
H12_4 H 0.2877 0.4368 0.0503
C17_4 C 0.3198(5) 0.6210(5) 0.3606(3)
C18_4 C 0.3462(4) 0.5629(4) 0.2985(3)
C19_4 C 0.4062(5) 0.4778(5) 0.3034(3)
C20_4 C 0.4302(5) 0.4327(4) 0.2446(3)
H13_4 H 0.4660 0.3710 0.2483
C21_4 C 0.4004(4) 0.4801(4) 0.1795(3)
C22_4 C 0.3400(4) 0.5659(4) 0.1722(3)
C23_4 C 0.3133(5) 0.6057(5) 0.2312(3)
H14_4 H 0.2717 0.6635 0.2267
C24_4 C 0.4388(5) 0.3819(5) 0.4732(3)
H15_4 H 0.4210 0.3729 0.5170
C25_4 C 0.5169(5) 0.3667(5) 0.3903(3)
H16_4 H 0.5629 0.3476 0.3625
C26_4 C 0.4059(5) 0.3718(5) 0.0174(3)
C27_4 C 0.5131(5) 0.3959(5) 0.1099(3)
H18_4 H 0.5730 0.3976 0.1435
C28_4 C 0.3089(4) 0.6228(4) 0.1030(3)
H17_4 H 0.3768 0.3512 0.9717
C11_4 C 0.9831(5) 0.3667(5) 0.6097(3)
H7_4 H 0.9371 0.3476 0.6375
C13_4 C 0.9869(5) 0.3959(5) 0.8901(3)
H9_4 H 0.9270 0.3976 0.8565
loop_
_geom_bond_atom_site_label_1
_geom_bond_atom_site_label_2
_geom_bond_site_symmetry_1
_geom_bond_site_symmetry_2
N5 C15 1_555 1_555
C15 H11 1_555 1_555
N7 C16 1_555 1_555
C16 H12 1_555 1_555
C19 N5 1_555 1_555
C20 C19 1_555 1_555
H13 C20 1_555 1_555
C21 N7 1_555 1_555
C24 C15 1_555 1_555
C26 C16 1_555 1_555
H17 C26 1_555 1_555
C20 C21 1_555 1_555
N1 C1 1_555 1_555
C1 H2 1_555 1_555
N2 C10 1_555 1_555
N3 C2 1_555 1_555
C2 H3 1_555 1_555
N4 C12 1_555 1_555
C5 N1 1_555 1_555
C6 C5 1_555 1_555
H4 C6 1_555 1_555
C7 N3 1_555 1_555
C10 C1 1_555 1_555
C11 N1 1_555 1_555
H7 C11 1_555 1_555
C12 C2 1_555 1_555
H8 C12 1_555 1_555
C13 N3 1_555 1_555
H9 C13 1_555 1_555
Zn4 N4 1_555 1_555
N2 C11 1_555 1_555
N4 C13 1_555 1_555
C6 C7 1_555 1_555
Zn2 O2 1_555 1_555
O6 Zn2 1_555 1_555
O7 C17 1_555 1_555
O8 C28 1_555 1_555
O9 C28 1_555 1_555
C17 O6 1_555 1_555
C18 C17 1_555 1_555
C23 C18 1_555 1_555
H14 C23 1_555 1_555
C28 C22 1_555 1_555
Zn8 O9 1_555 1_555
Zn10 O8 1_555 1_555
O11 Zn2 1_555 1_555
N11 Zn2 1_555 1_555
C22 C23 1_555 1_555
Zn1 O1 1_555 1_555
O1 C3 1_555 1_555
O2_2 Zn1 1_555 1_555
O3 C3 1_555 1_555
O4 C14 1_555 1_555
O5 C14 1_555 1_555
C3 C4 1_555 1_555
C9 C4 1_555 1_555
H5 C9 1_555 1_555
C14 C8 1_555 1_555
Zn8 O4 1_555 1_555
Zn10 O5 1_555 1_555
O10 Zn1 1_555 1_555
N12 Zn1 1_555 1_555
C8 C9 1_555 1_555
H16 C25 1_555 1_555
H18 C27 1_555 1_555
Zn3 N8 1_555 1_555
N6 C25 1_555 1_555
N8 C27 1_555 1_555
H7_2 C11_2 1_555 1_555
H9_2 C13_2 1_555 1_555
Zn8 N2_2 1_555 1_555
N2_2 C11_2 1_555 1_555
N11 C13_2 1_555 1_555
Zn3 O1_2 1_555 1_555
O1_2 C3_2 1_555 1_555
O2_3 Zn3 1_555 1_555
O3_2 C3_2 1_555 1_555
O4_2 C14_2 1_555 1_555
O5_2 C14_2 1_555 1_555
N1_2 C1_2 1_555 1_555
C1_2 H2_2 1_555 1_555
N3_2 C2_2 1_555 1_555
C2_2 H3_2 1_555 1_555
C3_2 C4_2 1_555 1_555
C4_2 C5_2 1_555 1_555
C5_2 N1_2 1_555 1_555
C6_2 C5_2 1_555 1_555
H4_2 C6_2 1_555 1_555
C7_2 N3_2 1_555 1_555
C8_2 C7_2 1_555 1_555
C9_2 C4_2 1_555 1_555
H5_2 C9_2 1_555 1_555
C10_2 C1_2 1_555 1_555
H6_2 C10_2 1_555 1_555
C12_2 C2_2 1_555 1_555
C14_2 C8_2 1_555 1_555
Zn4 O2_3 1_555 1_555
O6_2 Zn4 1_555 1_555
O7_2 C17_2 1_555 1_555
O8_2 C28_2 1_555 1_555
O9_2 C28_2 1_555 1_555
N5_2 C15_2 1_555 1_555
C15_2 H11_2 1_555 1_555
N6_2 C24_2 1_555 1_555
N7_2 C16_2 1_555 1_555
C16_2 H12_2 1_555 1_555
N12 C26_2 1_555 1_555
C17_2 O6_2 1_555 1_555
C18_2 C17_2 1_555 1_555
C19_2 N5_2 1_555 1_555
C20_2 C19_2 1_555 1_555
H13_2 C20_2 1_555 1_555
C21_2 N7_2 1_555 1_555
C22_2 C21_2 1_555 1_555
C23_2 C18_2 1_555 1_555
H14_2 C23_2 1_555 1_555
C24_2 C15_2 1_555 1_555
H15_2 C24_2 1_555 1_555
C25_2 N5_2 1_555 1_555
H16_2 C25_2 1_555 1_555
C26_2 C16_2 1_555 1_555
C27_2 N7_2 1_555 1_555
H18_2 C27_2 1_555 1_555
C28_2 C22_2 1_555 1_555
Zn10 N6_2 1_555 1_555
Zn5 O4_2 1_555 1_555
Zn6 O8_2 1_555 1_555
O10_2 Zn3 1_555 1_555
O11_2 Zn4 1_555 1_555
O12_2 Zn4 1_555 1_555
O13_2 Zn3 1_555 1_555
N9_2 Zn3 1_555 1_555
N10_2 Zn4 1_555 1_555
C6_2 C7_2 1_555 1_555
C8_2 C9_2 1_555 1_555
N6_2 C25_2 1_555 1_555
N12 C27_2 1_555 1_555
C18_2 C19_2 1_555 1_555
C20_2 C21_2 1_555 1_555
C22_2 C23_2 1_555 1_555
H16_3 C25_3 1_555 1_555
H18_3 C27_3 1_555 1_555
Zn8 N8_2 1_555 1_555
N10 C25_3 1_555 1_555
N8_2 C27_3 1_555 1_555
Zn5 O1_3 1_555 1_555
O1_3 C3_3 1_555 1_555
O2_4 Zn5 1_555 1_555
O3_3 C3_3 1_555 1_555
O10_2 C14_3 1_555 1_555
O12_2 C14_3 1_555 1_555
C3_3 C4_3 1_555 1_555
C9_3 C4_3 1_555 1_555
H5_3 C9_3 1_555 1_555
C14_3 C8_3 1_555 1_555
N12_2 Zn5 1_555 1_555
C8_3 C9_3 1_555 1_555
Zn6 O2_5 1_555 1_555
O6_3 Zn6 1_555 1_555
O7_3 C17_3 1_555 1_555
O11_2 C28_3 1_555 1_555
O13_2 C28_3 1_555 1_555
C17_3 O6_3 1_555 1_555
C18_3 C17_3 1_555 1_555
C23_3 C18_3 1_555 1_555
H14_3 C23_3 1_555 1_555
C28_3 C22_3 1_555 1_555
N11_2 Zn6 1_555 1_555
C22_3 C23_3 1_555 1_555
N1_3 C1_3 1_555 1_555
C1_3 H2_3 1_555 1_555
N9 C10_3 1_555 1_555
N3_3 C2_3 1_555 1_555
C2_3 H3_3 1_555 1_555
N4_2 C12_3 1_555 1_555
C5_3 N1_3 1_555 1_555
C6_3 C5_3 1_555 1_555
H4_3 C6_3 1_555 1_555
C7_3 N3_3 1_555 1_555
C10_3 C1_3 1_555 1_555
C11_3 N1_3 1_555 1_555
H7_3 C11_3 1_555 1_555
C12_3 C2_3 1_555 1_555
H8_3 C12_3 1_555 1_555
C13_3 N3_3 1_555 1_555
H9_3 C13_3 1_555 1_555
Zn10 N4_2 1_555 1_555
N9 C11_3 1_555 1_555
N4_2 C13_3 1_555 1_555
C6_3 C7_3 1_555 1_555
N5_3 C15_3 1_555 1_555
C15_3 H11_3 1_555 1_555
N7_3 C16_3 1_555 1_555
C16_3 H12_3 1_555 1_555
C19_3 N5_3 1_555 1_555
C20_3 C19_3 1_555 1_555
H13_3 C20_3 1_555 1_555
C21_3 N7_3 1_555 1_555
C24_3 C15_3 1_555 1_555
C26_3 C16_3 1_555 1_555
H17_3 C26_3 1_555 1_555
C20_3 C21_3 1_555 1_555
Zn8 O1_4 1_555 1_555
O1_4 C3_4 1_555 1_555
O2_6 Zn8 1_555 1_555
O3_4 C3_4 1_555 1_555
O10 C14_4 1_555 1_555
O12 C14_4 1_555 1_555
N1_4 C1_4 1_555 1_555
C1_4 H2_4 1_555 1_555
N3_4 C2_4 1_555 1_555
C2_4 H3_4 1_555 1_555
C3_4 C4_4 1_555 1_555
C4_4 C5_4 1_555 1_555
C5_4 N1_4 1_555 1_555
C6_4 C5_4 1_555 1_555
H4_4 C6_4 1_555 1_555
C7_4 N3_4 1_555 1_555
C8_4 C7_4 1_555 1_555
C9_4 C4_4 1_555 1_555
H5_4 C9_4 1_555 1_555
C10_4 C1_4 1_555 1_555
H6_4 C10_4 1_555 1_555
C12_4 C2_4 1_555 1_555
C14_4 C8_4 1_555 1_555
Zn10 O2_6 1_555 1_555
O6_4 Zn10 1_555 1_555
O7_4 C17_4 1_555 1_555
O11 C28_4 1_555 1_555
O13 C28_4 1_555 1_555
N5_4 C15_4 1_555 1_555
C15_4 H11_4 1_555 1_555
N10_2 C24_4 1_555 1_555
N7_4 C16_4 1_555 1_555
C16_4 H12_4 1_555 1_555
N12_2 C26_4 1_555 1_555
C17_4 O6_4 1_555 1_555
C18_4 C17_4 1_555 1_555
C19_4 N5_4 1_555 1_555
C20_4 C19_4 1_555 1_555
H13_4 C20_4 1_555 1_555
C21_4 N7_4 1_555 1_555
C22_4 C21_4 1_555 1_555
C23_4 C18_4 1_555 1_555
H14_4 C23_4 1_555 1_555
C24_4 C15_4 1_555 1_555
H15_4 C24_4 1_555 1_555
C25_4 N5_4 1_555 1_555
H16_4 C25_4 1_555 1_555
C26_4 C16_4 1_555 1_555
C27_4 N7_4 1_555 1_555
H18_4 C27_4 1_555 1_555
C28_4 C22_4 1_555 1_555
C6_4 C7_4 1_555 1_555
C8_4 C9_4 1_555 1_555
N10_2 C25_4 1_555 1_555
N12_2 C27_4 1_555 1_555
C18_4 C19_4 1_555 1_555
C20_4 C21_4 1_555 1_555
C22_4 C23_4 1_555 1_555
H7_4 C11_4 1_555 1_555
H9_4 C13_4 1_555 1_555
N9_2 C11_4 1_555 1_555
N11_2 C13_4 1_555 1_555

#END
