
###############################################################################
#
# This file contains modified crystal structure data generated from the
# MOF subset of the Cambridge Structural Database (CSD) v542 
# hosted by the Cambridge Crystallographic Data Centre (CCDC).
#
# This work is licensed under the Creative Commons
# Attribution-NonCommercial-ShareAlike 4.0 International License.
# To view a copy of this license, visit
# http://creativecommons.org/licenses/by-nc-sa/4.0/
# or send a letter to
# Creative Commons, PO Box 1866, Mountain View, CA 94042, USA.
#
# CIF created using the CSD Python API on 22 February 2021
# The structure has been converted into the P1 space group
# The structure has a 3D framework
# The original CSD entry UHATIJ is in the monoclinic crystal system
# The framework has been calculated to contain at least 10.0% void space
# The void calculation uses a probe of radius 1.32A, grid spacing 0.4
#
###############################################################################

data_UHATIJ
_chemical_formula_moiety         '(C144 H112 Cu8 N13 O40)n'
_symmetry_cell_setting           triclinic
_symmetry_space_group_name_H-M   'P 1'
_symmetry_Int_Tables_number      1
_space_group_name_Hall           'P 1'
loop_
_symmetry_equiv_pos_site_id
_symmetry_equiv_pos_as_xyz
1 x,y,z
_cell_length_a                   21.968(3)
_cell_length_b                   12.1570(10)
_cell_length_c                   16.974(2)
_cell_angle_alpha                90
_cell_angle_beta                 102.314(2)
_cell_angle_gamma                90
_cell_volume                     4428.87
loop_
_atom_site_label
_atom_site_type_symbol
_atom_site_fract_x
_atom_site_fract_y
_atom_site_fract_z
O1 O -0.0000 0.4811(3) 0.2500
O4 O 0.04263(16) 0.2844(3) 0.1721(2)
C4 C 0.0328(2) 0.1170(4) 0.0654(3)
H4 H 0.0712 0.1505 0.0842
C6 C 0.0288(2) 0.0250(4) 0.0144(3)
H21 H 0.1203 0.0142 0.0082
Cu2 Cu 0.08127(3) 0.39053(4) 0.25822(3)
O11 O 0.16494(15) 0.2947(3) 0.27673(19)
O12 O 0.13074(14) 0.4890(2) 0.34474(18)
O14 O 0.06036(16) 0.2934(3) 0.34568(19)
N5 N 0.11428(19) 0.4850(3) 0.1745(2)
C1 C 0.7416(2) 0.7224(4) 0.0323(3)
Cu1 Cu 0.91873(3) 0.39053(4) 0.24178(3)
O1_2 O 1.0000 0.4811(3) 0.2500
O2 O 0.83506(15) 0.2947(3) 0.22327(19)
O3 O 0.86926(14) 0.4890(2) 0.15526(18)
O5 O 0.93964(16) 0.2934(3) 0.15432(19)
O6 O 0.94641(17) 0.5879(3) 0.1265(2)
N1 N 0.88572(19) 0.4850(3) 0.3255(2)
N2 N 0.7571(2) 0.7211(4) 0.4676(3)
C2 C 0.8352(2) 0.6085(4) 0.4317(3)
C3 C 0.9820(2) 0.1571(4) 0.0874(3)
C5 C 0.9882(2) 0.2534(4) 0.1426(3)
C7 C 0.7850(2) 0.6501(4) 0.0789(3)
H5 H 0.7734 0.6104 0.1202
C8 C 0.9236(3) 0.1078(4) 0.0584(3)
H6 H 0.8883 0.1367 0.0728
C9 C 0.8596(2) 0.6932(4) 0.0018(3)
C10 C 0.9199(2) 0.5149(4) 0.3949(3)
H8 H 0.9616 0.4942 0.4077
C11 C 0.8427(2) 0.6369(4) 0.0654(3)
C12 C 0.8897(2) 0.5661(4) 0.1198(3)
C14 C 0.8091(3) 0.6728(4) 0.4879(3)
H10 H 0.8313 0.6790 0.5408
C15 C 0.7995(3) 0.5750(4) 0.3590(3)
H11 H 0.7575 0.5934 0.3451
C16 C 0.8963(3) 0.5762(4) 0.4498(3)
H12 H 0.9218 0.5955 0.4990
C17 C 0.9184(3) 0.0186(5) 0.0097(4)
C18 C 0.8257(2) 0.5155(4) 0.3079(3)
H14 H 0.8012 0.4948 0.2585
H16 H 0.6005 0.8153 0.0079
C24 C 0.6819(2) 0.7396(4) 0.0462(3)
H17 H 0.6703 0.7042 0.0893
N4 N 0.7429(2) 0.7789(4) 0.5324(3)
C31 C 0.6648(2) 0.8915(4) 0.5683(3)
C32 C 0.5801(2) 0.9851(4) 0.6051(3)
C33 C 0.6909(3) 0.8272(4) 0.5121(3)
H23 H 0.6687 0.8210 0.4592
C34 C 0.7005(3) 0.9250(4) 0.6410(3)
H24 H 0.7425 0.9066 0.6549
C35 C 0.6037(3) 0.9238(4) 0.5502(3)
H25 H 0.5782 0.9045 0.5010
C36 C 0.6743(2) 0.9845(4) 0.6921(3)
O13 O 0.95737(16) 0.2844(3) 0.3279(2)
H7 H 0.8995 0.6847 0.9921
C13 C 0.8181(2) 0.7604(4) 0.9538(3)
H9 H 0.8297 0.7958 0.9107
C19 C 0.7584(2) 0.7776(4) 0.9677(3)
O8 O 0.55359(17) 0.9121(3) 0.8735(2)
C20 C 0.7150(2) 0.8499(4) 0.9211(3)
H15 H 0.7266 0.8896 0.8798
C21 C 0.6404(2) 0.8068(4) 0.9982(3)
C22 C 0.6573(2) 0.8631(4) 0.9346(3)
C23 C 0.6103(2) 0.9339(4) 0.8802(3)
C1_2 C 0.2584(2) 0.7224(4) 0.4677(3)
O6_2 O 0.05359(17) 0.5879(3) 0.3735(2)
N2_2 N 0.2429(2) 0.7211(4) 0.0324(3)
C2_2 C 0.1648(2) 0.6085(4) 0.0683(3)
C3_2 C 0.0180(2) 0.1571(4) 0.4126(3)
C5_2 C 0.0118(2) 0.2534(4) 0.3574(3)
C7_2 C 0.2150(2) 0.6501(4) 0.4211(3)
H5_2 H 0.2266 0.6104 0.3798
C8_2 C 0.0764(3) 0.1078(4) 0.4416(3)
H6_2 H 0.1117 0.1367 0.4272
C9_2 C 0.1404(2) 0.6932(4) 0.4982(3)
H7_2 H 0.1005 0.6847 0.5079
C10_2 C 0.0801(2) 0.5149(4) 0.1051(3)
H8_2 H 0.0384 0.4942 0.0923
C11_2 C 0.1573(2) 0.6369(4) 0.4346(3)
C12_2 C 0.1103(2) 0.5661(4) 0.3802(3)
C13_2 C 0.1819(2) 0.7604(4) 0.5462(3)
H9_2 H 0.1703 0.7958 0.5893
C14_2 C 0.1909(3) 0.6728(4) 0.0121(3)
C15_2 C 0.2005(3) 0.5750(4) 0.1410(3)
H11_2 H 0.2425 0.5934 0.1549
C16_2 C 0.1037(3) 0.5762(4) 0.0502(3)
H12_2 H 0.0782 0.5955 0.0010
C17_2 C 0.0816(3) 0.0186(5) 0.4903(4)
C18_2 C 0.1743(2) 0.5155(4) 0.1921(3)
H14_2 H 0.1988 0.4948 0.2415
C19_2 C 0.2416(2) 0.7776(4) 0.5323(3)
O8_2 O 0.44641(17) 0.9121(3) 0.6265(2)
C20_2 C 0.2850(2) 0.8499(4) 0.5789(3)
H15_2 H 0.2734 0.8896 0.6202
C21_2 C 0.3596(2) 0.8068(4) 0.5018(3)
H16_2 H 0.3995 0.8153 0.4921
C22_2 C 0.3427(2) 0.8631(4) 0.5654(3)
C23_2 C 0.3897(2) 0.9339(4) 0.6198(3)
C24_2 C 0.3181(2) 0.7396(4) 0.4538(3)
H17_2 H 0.3297 0.7042 0.4107
H23_2 H 0.3313 0.8210 0.0408
H10_2 H 0.1687 0.6790 0.9592
N4_2 N 0.2571(2) 0.7789(4) 0.9676(3)
C31_2 C 0.3352(2) 0.8915(4) 0.9317(3)
C32_2 C 0.4199(2) 0.9851(4) 0.8949(3)
C33_2 C 0.3091(3) 0.8272(4) 0.9879(3)
C34_2 C 0.2995(3) 0.9250(4) 0.8590(3)
H24_2 H 0.2575 0.9066 0.8451
C35_2 C 0.3963(3) 0.9238(4) 0.9498(3)
H25_2 H 0.4218 0.9045 0.9990
C36_2 C 0.3257(2) 0.9845(4) 0.8079(3)
C4_2 C 0.9672(2) 0.1170(4) 0.4346(3)
H4_2 H 0.9288 0.1505 0.4158
C6_2 C 0.9712(2) 0.0250(4) 0.4856(3)
H21_2 H 0.8797 0.0142 0.4918
O10 O 0.06036(16) 0.7066(3) 0.84568(19)
C25 C 0.0180(2) 0.8429(4) 0.9126(3)
C27 C 0.0118(2) 0.7466(4) 0.8574(3)
C29 C 0.0764(3) 0.8922(4) 0.9416(3)
H20 H 0.1117 0.8633 0.9272
C30 C 0.0816(3) 0.9814(5) 0.9903(4)
Cu3 Cu 0.08127(3) 0.60947(4) 0.75822(3)
H13 H 0.8797 0.9858 0.9918
O9 O 0.95737(16) 0.7156(3) 0.8279(2)
C26 C 0.9672(2) 0.8830(4) 0.9346(3)
H19 H 0.9288 0.8495 0.9158
C28 C 0.9712(2) 0.9750(4) 0.9856(3)
Cu4 Cu 0.91873(3) 0.60947(4) 0.74178(3)
H13_2 H 0.1203 0.9858 0.5082
O9_2 O 0.04263(16) 0.7156(3) 0.6721(2)
C26_2 C 0.0328(2) 0.8830(4) 0.5654(3)
H19_2 H 0.0712 0.8495 0.5842
C28_2 C 0.0288(2) 0.9750(4) 0.5144(3)
O10_2 O 0.93964(16) 0.7066(3) 0.65432(19)
C25_2 C 0.9820(2) 0.8429(4) 0.5874(3)
C27_2 C 0.9882(2) 0.7466(4) 0.6426(3)
C29_2 C 0.9236(3) 0.8922(4) 0.5584(3)
H20_2 H 0.8883 0.8633 0.5728
C30_2 C 0.9184(3) 0.9814(5) 0.5097(4)
C1_3 C 0.2416(2) 0.2224(4) 0.0323(3)
O6_3 O 0.44641(17) 0.0879(3) 0.1265(2)
N2_3 N 0.2571(2) 0.2211(4) 0.4676(3)
C2_3 C 0.3352(2) 0.1085(4) 0.4317(3)
C7_3 C 0.2850(2) 0.1501(4) 0.0789(3)
H5_3 H 0.2734 0.1104 0.1202
C9_3 C 0.3596(2) 0.1932(4) 0.0018(3)
C10_3 C 0.4199(2) 0.0149(4) 0.3949(3)
C11_3 C 0.3427(2) 0.1369(4) 0.0654(3)
C12_3 C 0.3897(2) 0.0661(4) 0.1198(3)
C14_3 C 0.3091(3) 0.1728(4) 0.4879(3)
H10_3 H 0.3313 0.1790 0.5408
C15_3 C 0.2995(3) 0.0750(4) 0.3590(3)
H11_3 H 0.2575 0.0934 0.3451
C16_3 C 0.3963(3) 0.0762(4) 0.4498(3)
H12_3 H 0.4218 0.0955 0.4990
C18_3 C 0.3257(2) 0.0155(4) 0.3079(3)
H16_3 H 0.1005 0.3153 0.0079
C24_3 C 0.1819(2) 0.2396(4) 0.0462(3)
H17_3 H 0.1703 0.2042 0.0893
N3 N 0.11428(19) 0.5150(3) 0.6745(2)
N4_3 N 0.2429(2) 0.2789(4) 0.5324(3)
C31_3 C 0.1648(2) 0.3915(4) 0.5683(3)
C32_3 C 0.0801(2) 0.4851(4) 0.6051(3)
H22 H 0.0384 0.5058 0.5923
C33_3 C 0.1909(3) 0.3272(4) 0.5121(3)
H23_3 H 0.1687 0.3210 0.4592
C34_3 C 0.2005(3) 0.4250(4) 0.6410(3)
H24_3 H 0.2425 0.4066 0.6549
C35_3 C 0.1037(3) 0.4238(4) 0.5502(3)
H25_3 H 0.0782 0.4045 0.5010
C36_3 C 0.1743(2) 0.4845(4) 0.6921(3)
H26 H 0.1988 0.5052 0.7415
H7_3 H 0.3995 0.1847 0.9921
C13_3 C 0.3181(2) 0.2604(4) 0.9538(3)
H9_3 H 0.3297 0.2958 0.9107
C19_3 C 0.2584(2) 0.2776(4) 0.9677(3)
O7 O 0.13074(14) 0.5110(2) 0.84474(18)
O8_3 O 0.05359(17) 0.4121(3) 0.8735(2)
C20_3 C 0.2150(2) 0.3499(4) 0.9211(3)
H15_3 H 0.2266 0.3896 0.8798
C21_3 C 0.1404(2) 0.3068(4) 0.9982(3)
C22_3 C 0.1573(2) 0.3631(4) 0.9346(3)
C23_3 C 0.1103(2) 0.4339(4) 0.8802(3)
C1_4 C 0.7584(2) 0.2224(4) 0.4677(3)
O6_4 O 0.55359(17) 0.0879(3) 0.3735(2)
N2_4 N 0.7429(2) 0.2211(4) 0.0324(3)
C2_4 C 0.6648(2) 0.1085(4) 0.0683(3)
C7_4 C 0.7150(2) 0.1501(4) 0.4211(3)
H5_4 H 0.7266 0.1104 0.3798
C9_4 C 0.6404(2) 0.1932(4) 0.4982(3)
H7_4 H 0.6005 0.1847 0.5079
C10_4 C 0.5801(2) 0.0149(4) 0.1051(3)
C11_4 C 0.6573(2) 0.1369(4) 0.4346(3)
C12_4 C 0.6103(2) 0.0661(4) 0.3802(3)
C13_4 C 0.6819(2) 0.2604(4) 0.5462(3)
H9_4 H 0.6703 0.2958 0.5893
C14_4 C 0.6909(3) 0.1728(4) 0.0121(3)
C15_4 C 0.7005(3) 0.0750(4) 0.1410(3)
H11_4 H 0.7425 0.0934 0.1549
C16_4 C 0.6037(3) 0.0762(4) 0.0502(3)
H12_4 H 0.5782 0.0955 0.0010
C18_4 C 0.6743(2) 0.0155(4) 0.1921(3)
C19_4 C 0.7416(2) 0.2776(4) 0.5323(3)
O7_2 O 0.86926(14) 0.5110(2) 0.65526(18)
O8_4 O 0.94641(17) 0.4121(3) 0.6265(2)
C20_4 C 0.7850(2) 0.3499(4) 0.5789(3)
H15_4 H 0.7734 0.3896 0.6202
C21_4 C 0.8596(2) 0.3068(4) 0.5018(3)
H16_4 H 0.8995 0.3153 0.4921
C22_4 C 0.8427(2) 0.3631(4) 0.5654(3)
C23_4 C 0.8897(2) 0.4339(4) 0.6198(3)
C24_4 C 0.8181(2) 0.2396(4) 0.4538(3)
H17_4 H 0.8297 0.2042 0.4107
H23_4 H 0.8313 0.3210 0.0408
H10_4 H 0.6687 0.1790 0.9592
N3_2 N 0.88572(19) 0.5150(3) 0.8255(2)
N4_4 N 0.7571(2) 0.2789(4) 0.9676(3)
C31_4 C 0.8352(2) 0.3915(4) 0.9317(3)
C32_4 C 0.9199(2) 0.4851(4) 0.8949(3)
H22_2 H 0.9616 0.5058 0.9077
C33_4 C 0.8091(3) 0.3272(4) 0.9879(3)
C34_4 C 0.7995(3) 0.4250(4) 0.8590(3)
H24_4 H 0.7575 0.4066 0.8451
C35_4 C 0.8963(3) 0.4238(4) 0.9498(3)
H25_4 H 0.9218 0.4045 0.9990
C36_4 C 0.8257(2) 0.4845(4) 0.8079(3)
H26_2 H 0.8012 0.5052 0.7585
O1_3 O -0.0000 0.5189(3) 0.7500
O2_2 O 0.16494(15) 0.7053(3) 0.77673(19)
O1_4 O 1.0000 0.5189(3) 0.7500
O11_2 O 0.83506(15) 0.7053(3) 0.72327(19)
N3_3 N 0.61428(19) 0.0150(3) 0.6745(2)
H22_3 H 0.5384 0.0058 0.5923
H26_3 H 0.6988 0.0052 0.7415
Cu6 Cu 0.58127(3) 0.10947(4) 0.75822(3)
O7_3 O 0.63074(14) 0.0110(2) 0.84474(18)
O7_4 O 0.36926(14) 0.0110(2) 0.65526(18)
Cu5 Cu 0.41873(3) 0.10947(4) 0.74178(3)
N3_4 N 0.38572(19) 0.0150(3) 0.8255(2)
H22_4 H 0.4616 0.0058 0.9077
H26_4 H 0.3012 0.0052 0.7585
Cu1_2 Cu 0.41873(3) 0.89053(4) 0.24178(3)
O1_5 O 0.5000 0.9811(3) 0.2500
O2_3 O 0.33506(15) 0.7947(3) 0.22327(19)
O3_2 O 0.36926(14) 0.9890(2) 0.15526(18)
O4_2 O 0.54263(16) 0.7844(3) 0.1721(2)
O5_2 O 0.43964(16) 0.7934(3) 0.15432(19)
N1_2 N 0.38572(19) 0.9850(3) 0.3255(2)
C3_3 C 0.4820(2) 0.6571(4) 0.0874(3)
C4_3 C 0.5328(2) 0.6170(4) 0.0654(3)
H4_3 H 0.5712 0.6505 0.0842
C5_3 C 0.4882(2) 0.7534(4) 0.1426(3)
C6_3 C 0.5288(2) 0.5250(4) 0.0144(3)
C8_3 C 0.4236(3) 0.6078(4) 0.0584(3)
H6_3 H 0.3883 0.6367 0.0728
H8_3 H 0.4616 0.9942 0.4077
C17_3 C 0.4184(3) 0.5186(5) 0.0097(4)
H14_3 H 0.3012 0.9948 0.2585
H21_3 H 0.6203 0.5142 0.0082
Cu2_2 Cu 0.58127(3) 0.89053(4) 0.25822(3)
O11_3 O 0.66494(15) 0.7947(3) 0.27673(19)
O12_2 O 0.63074(14) 0.9890(2) 0.34474(18)
O13_2 O 0.45737(16) 0.7844(3) 0.3279(2)
O14_2 O 0.56036(16) 0.7934(3) 0.34568(19)
N5_2 N 0.61428(19) 0.9850(3) 0.1745(2)
H13_3 H 0.3797 0.4858 0.9918
O9_3 O 0.45737(16) 0.2156(3) 0.8279(2)
O10_3 O 0.56036(16) 0.2066(3) 0.84568(19)
C25_3 C 0.5180(2) 0.3429(4) 0.9126(3)
C26_3 C 0.4672(2) 0.3830(4) 0.9346(3)
H19_3 H 0.4288 0.3495 0.9158
C27_3 C 0.5118(2) 0.2466(4) 0.8574(3)
C28_3 C 0.4712(2) 0.4750(4) 0.9856(3)
C29_3 C 0.5764(3) 0.3922(4) 0.9416(3)
H20_3 H 0.6117 0.3633 0.9272
C30_3 C 0.5816(3) 0.4814(5) 0.9903(4)
C3_4 C 0.5180(2) 0.6571(4) 0.4126(3)
C4_4 C 0.4672(2) 0.6170(4) 0.4346(3)
H4_4 H 0.4288 0.6505 0.4158
C5_4 C 0.5118(2) 0.7534(4) 0.3574(3)
C6_4 C 0.4712(2) 0.5250(4) 0.4856(3)
C8_4 C 0.5764(3) 0.6078(4) 0.4416(3)
H6_4 H 0.6117 0.6367 0.4272
H8_4 H 0.5384 0.9942 0.0923
C17_4 C 0.5816(3) 0.5186(5) 0.4903(4)
H13_4 H 0.6203 0.4858 0.5082
H14_4 H 0.6988 0.9948 0.2415
O9_4 O 0.54263(16) 0.2156(3) 0.6721(2)
O10_4 O 0.43964(16) 0.2066(3) 0.65432(19)
C25_4 C 0.4820(2) 0.3429(4) 0.5874(3)
C26_4 C 0.5328(2) 0.3830(4) 0.5654(3)
H19_4 H 0.5712 0.3495 0.5842
C27_4 C 0.4882(2) 0.2466(4) 0.6426(3)
C28_4 C 0.5288(2) 0.4750(4) 0.5144(3)
C29_4 C 0.4236(3) 0.3922(4) 0.5584(3)
H20_4 H 0.3883 0.3633 0.5728
C30_4 C 0.4184(3) 0.4814(5) 0.5097(4)
H21_4 H 0.3797 0.5142 0.4918
O1_6 O 0.5000 0.0189(3) 0.7500
O2_4 O 0.66494(15) 0.2053(3) 0.77673(19)
O11_4 O 0.33506(15) 0.2053(3) 0.72327(19)
loop_
_geom_bond_atom_site_label_1
_geom_bond_atom_site_label_2
_geom_bond_site_symmetry_1
_geom_bond_site_symmetry_2
C4 H4 1_555 1_555
C6 C4 1_555 1_555
Cu2 O1 1_555 1_555
O11 Cu2 1_555 1_555
O12 Cu2 1_555 1_555
O14 Cu2 1_555 1_555
N5 Cu2 1_555 1_555
O4 Cu2 1_555 1_555
C1 C7 1_555 1_555
Cu1 O1_2 1_555 1_555
O2 Cu1 1_555 1_555
O3 Cu1 1_555 1_555
O5 Cu1 1_555 1_555
O6 C12 1_555 1_555
N1 Cu1 1_555 1_555
N2 C14 1_555 1_555
C2 C14 1_555 1_555
C5 O5 1_555 1_555
C7 H5 1_555 1_555
C8 C3 1_555 1_555
H6 C8 1_555 1_555
C10 N1 1_555 1_555
H8 C10 1_555 1_555
C11 C7 1_555 1_555
C12 O3 1_555 1_555
C14 H10 1_555 1_555
C15 C2 1_555 1_555
H11 C15 1_555 1_555
C16 C2 1_555 1_555
H12 C16 1_555 1_555
C17 C8 1_555 1_555
C18 N1 1_555 1_555
H14 C18 1_555 1_555
C24 C1 1_555 1_555
H17 C24 1_555 1_555
N4 N2 1_555 1_555
C31 C33 1_555 1_555
C33 N4 1_555 1_555
H23 C33 1_555 1_555
C34 C31 1_555 1_555
H24 C34 1_555 1_555
C35 C31 1_555 1_555
H25 C35 1_555 1_555
O13 Cu1 1_555 1_555
C3 C5 1_555 1_555
C9 C11 1_555 1_555
C10 C16 1_555 1_555
C11 C12 1_555 1_555
C15 C18 1_555 1_555
C32 C35 1_555 1_555
C34 C36 1_555 1_555
H9 C13 1_555 1_555
O8 C23 1_555 1_555
C20 C19 1_555 1_555
H15 C20 1_555 1_555
C22 C20 1_555 1_555
C23 C22 1_555 1_555
C13 C19 1_555 1_555
C21 C22 1_555 1_555
C1_2 C7_2 1_555 1_555
O6_2 C12_2 1_555 1_555
N2_2 C14_2 1_555 1_555
C2_2 C14_2 1_555 1_555
C5_2 O14 1_555 1_555
C7_2 H5_2 1_555 1_555
C8_2 C3_2 1_555 1_555
H6_2 C8_2 1_555 1_555
C9_2 H7_2 1_555 1_555
C10_2 N5 1_555 1_555
H8_2 C10_2 1_555 1_555
C11_2 C7_2 1_555 1_555
C12_2 O12 1_555 1_555
C13_2 C9_2 1_555 1_555
H9_2 C13_2 1_555 1_555
C15_2 C2_2 1_555 1_555
H11_2 C15_2 1_555 1_555
C16_2 C2_2 1_555 1_555
H12_2 C16_2 1_555 1_555
C17_2 C8_2 1_555 1_555
C18_2 N5 1_555 1_555
H14_2 C18_2 1_555 1_555
C19_2 C1_2 1_555 1_555
O8_2 C23_2 1_555 1_555
C20_2 C19_2 1_555 1_555
H15_2 C20_2 1_555 1_555
C21_2 H16_2 1_555 1_555
C22_2 C20_2 1_555 1_555
C23_2 C22_2 1_555 1_555
C24_2 C1_2 1_555 1_555
H17_2 C24_2 1_555 1_555
C3_2 C5_2 1_555 1_555
C9_2 C11_2 1_555 1_555
C10_2 C16_2 1_555 1_555
C11_2 C12_2 1_555 1_555
C13_2 C19_2 1_555 1_555
C15_2 C18_2 1_555 1_555
C21_2 C22_2 1_555 1_555
C21_2 C24_2 1_555 1_555
C31_2 C33_2 1_555 1_555
C33_2 N4_2 1_555 1_555
C34_2 C31_2 1_555 1_555
H24_2 C34_2 1_555 1_555
C35_2 C31_2 1_555 1_555
H25_2 C35_2 1_555 1_555
C32_2 C35_2 1_555 1_555
C34_2 C36_2 1_555 1_555
C4_2 H4_2 1_555 1_555
C6_2 C4_2 1_555 1_555
O10 C27 1_555 1_555
C27 C25 1_555 1_555
C29 C25 1_555 1_555
H20 C29 1_555 1_555
Cu3 O10 1_555 1_555
C29 C30 1_555 1_555
C26 H19 1_555 1_555
Cu4 O9 1_555 1_555
C26 C28 1_555 1_555
C26_2 H19_2 1_555 1_555
Cu3 O9_2 1_555 1_555
C26_2 C28_2 1_555 1_555
O10_2 C27_2 1_555 1_555
C27_2 C25_2 1_555 1_555
C29_2 C25_2 1_555 1_555
H20_2 C29_2 1_555 1_555
Cu4 O10_2 1_555 1_555
C29_2 C30_2 1_555 1_555
C1_3 C7_3 1_555 1_555
O6_3 C12_3 1_555 1_555
N2_3 C14_3 1_555 1_555
C2_3 C14_3 1_555 1_555
C7_3 H5_3 1_555 1_555
C11_3 C7_3 1_555 1_555
C14_3 H10_3 1_555 1_555
C15_3 C2_3 1_555 1_555
H11_3 C15_3 1_555 1_555
C16_3 C2_3 1_555 1_555
H12_3 C16_3 1_555 1_555
C24_3 C1_3 1_555 1_555
H17_3 C24_3 1_555 1_555
N3 C32_3 1_555 1_555
N4_3 N2_3 1_555 1_555
C31_3 C33_3 1_555 1_555
C32_3 H22 1_555 1_555
C33_3 N4_3 1_555 1_555
H23_3 C33_3 1_555 1_555
C34_3 C31_3 1_555 1_555
H24_3 C34_3 1_555 1_555
C35_3 C31_3 1_555 1_555
H25_3 C35_3 1_555 1_555
C36_3 N3 1_555 1_555
H26 C36_3 1_555 1_555
Cu3 N3 1_555 1_555
C9_3 C11_3 1_555 1_555
C10_3 C16_3 1_555 1_555
C11_3 C12_3 1_555 1_555
C15_3 C18_3 1_555 1_555
C32_3 C35_3 1_555 1_555
C34_3 C36_3 1_555 1_555
H9_3 C13_3 1_555 1_555
O7 C23_3 1_555 1_555
O8_3 C23_3 1_555 1_555
C20_3 C19_3 1_555 1_555
H15_3 C20_3 1_555 1_555
C22_3 C20_3 1_555 1_555
C23_3 C22_3 1_555 1_555
Cu3 O7 1_555 1_555
C13_3 C19_3 1_555 1_555
C21_3 C22_3 1_555 1_555
C1_4 C7_4 1_555 1_555
O6_4 C12_4 1_555 1_555
N2_4 C14_4 1_555 1_555
C2_4 C14_4 1_555 1_555
C7_4 H5_4 1_555 1_555
C9_4 H7_4 1_555 1_555
C11_4 C7_4 1_555 1_555
C13_4 C9_4 1_555 1_555
H9_4 C13_4 1_555 1_555
C15_4 C2_4 1_555 1_555
H11_4 C15_4 1_555 1_555
C16_4 C2_4 1_555 1_555
H12_4 C16_4 1_555 1_555
C19_4 C1_4 1_555 1_555
O7_2 C23_4 1_555 1_555
O8_4 C23_4 1_555 1_555
C20_4 C19_4 1_555 1_555
H15_4 C20_4 1_555 1_555
C21_4 H16_4 1_555 1_555
C22_4 C20_4 1_555 1_555
C23_4 C22_4 1_555 1_555
C24_4 C1_4 1_555 1_555
H17_4 C24_4 1_555 1_555
Cu4 O7_2 1_555 1_555
C9_4 C11_4 1_555 1_555
C10_4 C16_4 1_555 1_555
C11_4 C12_4 1_555 1_555
C13_4 C19_4 1_555 1_555
C15_4 C18_4 1_555 1_555
C21_4 C22_4 1_555 1_555
C21_4 C24_4 1_555 1_555
N3_2 C32_4 1_555 1_555
C31_4 C33_4 1_555 1_555
C32_4 H22_2 1_555 1_555
C33_4 N4_4 1_555 1_555
C34_4 C31_4 1_555 1_555
H24_4 C34_4 1_555 1_555
C35_4 C31_4 1_555 1_555
H25_4 C35_4 1_555 1_555
C36_4 N3_2 1_555 1_555
H26_2 C36_4 1_555 1_555
Cu4 N3_2 1_555 1_555
C32_4 C35_4 1_555 1_555
C34_4 C36_4 1_555 1_555
Cu3 O1_3 1_555 1_555
O2_2 Cu3 1_555 1_555
Cu4 O1_4 1_555 1_555
O11_2 Cu4 1_555 1_555
Cu6 N3_3 1_555 1_555
Cu6 O7_3 1_555 1_555
Cu5 O7_4 1_555 1_555
Cu5 N3_4 1_555 1_555
Cu1_2 O1_5 1_555 1_555
O2_3 Cu1_2 1_555 1_555
O3_2 Cu1_2 1_555 1_555
O4_2 C5_3 1_555 1_555
O5_2 Cu1_2 1_555 1_555
N1_2 Cu1_2 1_555 1_555
C3_3 C4_3 1_555 1_555
C4_3 H4_3 1_555 1_555
C5_3 O5_2 1_555 1_555
C6_3 C4_3 1_555 1_555
C8_3 C3_3 1_555 1_555
H6_3 C8_3 1_555 1_555
C17_3 C8_3 1_555 1_555
Cu2_2 O1_5 1_555 1_555
O11_3 Cu2_2 1_555 1_555
O12_2 Cu2_2 1_555 1_555
O13_2 Cu1_2 1_555 1_555
O14_2 Cu2_2 1_555 1_555
N5_2 Cu2_2 1_555 1_555
O4_2 Cu2_2 1_555 1_555
C3_3 C5_3 1_555 1_555
O9_3 C27_3 1_555 1_555
O10_3 C27_3 1_555 1_555
C25_3 C26_3 1_555 1_555
C26_3 H19_3 1_555 1_555
C27_3 C25_3 1_555 1_555
C29_3 C25_3 1_555 1_555
H20_3 C29_3 1_555 1_555
Cu6 O10_3 1_555 1_555
Cu5 O9_3 1_555 1_555
C26_3 C28_3 1_555 1_555
C29_3 C30_3 1_555 1_555
O13_2 C5_4 1_555 1_555
C3_4 C4_4 1_555 1_555
C4_4 H4_4 1_555 1_555
C5_4 O14_2 1_555 1_555
C6_4 C4_4 1_555 1_555
C8_4 C3_4 1_555 1_555
H6_4 C8_4 1_555 1_555
C17_4 C8_4 1_555 1_555
H13_4 C17_4 1_555 1_555
O9_4 C27_4 1_555 1_555
O10_4 C27_4 1_555 1_555
C25_4 C26_4 1_555 1_555
C26_4 H19_4 1_555 1_555
C27_4 C25_4 1_555 1_555
C28_4 C6_4 1_555 1_555
C29_4 C25_4 1_555 1_555
H20_4 C29_4 1_555 1_555
C30_4 C6_4 1_555 1_555
H21_4 C30_4 1_555 1_555
Cu5 O10_4 1_555 1_555
Cu6 O9_4 1_555 1_555
C3_4 C5_4 1_555 1_555
C17_4 C28_4 1_555 1_555
C26_4 C28_4 1_555 1_555
C29_4 C30_4 1_555 1_555
Cu6 O1_6 1_555 1_555
O2_4 Cu6 1_555 1_555
Cu5 O1_6 1_555 1_555
O11_4 Cu5 1_555 1_555

#END
