
###############################################################################
#
# This file contains modified crystal structure data generated from the
# MOF subset of the Cambridge Structural Database (CSD) v542 
# hosted by the Cambridge Crystallographic Data Centre (CCDC).
#
# This work is licensed under the Creative Commons
# Attribution-NonCommercial-ShareAlike 4.0 International License.
# To view a copy of this license, visit
# http://creativecommons.org/licenses/by-nc-sa/4.0/
# or send a letter to
# Creative Commons, PO Box 1866, Mountain View, CA 94042, USA.
#
# CIF created using the CSD Python API on 22 February 2021
# The structure has been converted into the P1 space group
# The structure has a 3D framework
# The original CSD entry UHATEF is in the triclinic crystal system
# The framework has been calculated to contain at least 10.0% void space
# The void calculation uses a probe of radius 1.32A, grid spacing 0.4
#
###############################################################################

data_UHATEF
_chemical_formula_moiety         '(C38 H20 Cu2 N4 O6 S2)n'
_symmetry_cell_setting           triclinic
_symmetry_space_group_name_H-M   'P 1'
_symmetry_Int_Tables_number      1
_space_group_name_Hall           'P 1'
loop_
_symmetry_equiv_pos_site_id
_symmetry_equiv_pos_as_xyz
1 x,y,z
_cell_length_a                   7.9631(3)
_cell_length_b                   10.2478(2)
_cell_length_c                   13.0639(3)
_cell_angle_alpha                78.113(2)
_cell_angle_beta                 76.5520(10)
_cell_angle_gamma                89.139(2)
_cell_volume                     1014
loop_
_atom_site_label
_atom_site_type_symbol
_atom_site_fract_x
_atom_site_fract_y
_atom_site_fract_z
_atom_site_U_iso_or_equiv
_atom_site_thermal_displace_type
Cu7 Cu 0.15887(5) 0.08097(4) 0.45486(3) 0.0125 Uani
O2 O 0.0589(4) 0.0307(3) 0.3345(2) 0.0321 Uani
C6 C 0.0502(5) 0.0453(4) 0.1212(3) 0.0335 Uani
H3 H 0.123695 0.104499 0.136494 0.0400 Uiso
C31 C 0.0543(5) 0.0452(4) 0.0117(3) 0.0326 Uani
O5 O 0.1801(4) 0.0943(3) 0.6067(2) 0.0290 Uani
C27 C 0.0597(5) 0.0343(4) 0.6804(3) 0.0264 Uani
C28 C 0.0579(5) 0.0385(4) 0.7954(3) 0.0289 Uani
C29 C 0.1661(6) 0.1267(5) 0.8193(3) 0.0377 Uani
H15 H 0.241619 0.183799 0.763644 0.0450 Uiso
C30 C 0.1635(6) 0.1311(5) 0.9238(4) 0.0425 Uani
H16 H 0.236056 0.192542 0.937224 0.0510 Uiso
S2 S 0.74702(18) 0.53854(16) 0.02465(14) 0.0662 Uani
N3 N 0.3613(4) 0.1879(3) 0.3510(2) 0.0226 Uani
N4 N 0.9511(5) 0.3677(4) 0.1222(3) 0.0465 Uani
C20 C 0.5188(5) 0.1444(4) 0.3385(3) 0.0290 Uani
H11 H 0.537184 0.062849 0.380386 0.0350 Uiso
C21 C 0.6572(5) 0.2136(4) 0.2667(4) 0.0348 Uani
H12 H 0.767318 0.180214 0.261997 0.0420 Uiso
C22 C 0.6337(5) 0.3312(4) 0.2021(3) 0.0314 Uani
C23 C 0.4689(6) 0.3773(5) 0.2149(4) 0.0444 Uani
H13 H 0.446645 0.457975 0.173429 0.0530 Uiso
C24 C 0.3382(5) 0.3027(4) 0.2897(4) 0.0394 Uani
H14 H 0.226971 0.334700 0.297693 0.0470 Uiso
C25 C 0.7794(6) 0.4033(5) 0.1215(4) 0.0421 Uani
O3 O 0.0164(3) 0.7781(3) 0.5366(2) 0.0284 Uani
O4 O 0.2588(3) 0.9007(2) 0.4752(2) 0.0260 Uani
C7 C 0.1763(4) 0.7925(3) 0.5076(3) 0.0228 Uani
C8 C 0.2753(5) 0.6704(3) 0.5112(3) 0.0238 Uani
C9 C 0.1876(5) 0.5466(4) 0.5492(3) 0.0295 Uani
H4 H 0.067801 0.542536 0.572276 0.0350 Uiso
C10 C 0.2752(5) 0.4335(4) 0.5527(3) 0.0287 Uani
H5 H 0.215436 0.351579 0.577519 0.0340 Uiso
C11 C 0.4560(4) 0.4377(3) 0.5192(3) 0.0232 Uani
C12 C 0.4502(5) 0.6767(4) 0.4774(3) 0.0247 Uani
H6 H 0.507727 0.759426 0.451525 0.0300 Uiso
O7 O 0.9836(3) 0.2219(3) 0.4634(2) 0.0284 Uani
O8 O 0.7412(3) 0.0993(2) 0.5248(2) 0.0260 Uani
C33 C 0.8237(4) 0.2075(3) 0.4924(3) 0.0228 Uani
C34 C 0.7247(5) 0.3296(3) 0.4888(3) 0.0238 Uani
C35 C 0.8124(5) 0.4534(4) 0.4508(3) 0.0295 Uani
H18 H 0.932199 0.457464 0.427724 0.0350 Uiso
C36 C 0.7248(5) 0.5665(4) 0.4473(3) 0.0287 Uani
H19 H 0.784564 0.648421 0.422481 0.0340 Uiso
C37 C 0.5440(4) 0.5623(3) 0.4808(3) 0.0232 Uani
C38 C 0.5498(5) 0.3233(4) 0.5226(3) 0.0247 Uani
H20 H 0.492273 0.240574 0.548475 0.0300 Uiso
Cu4 Cu 0.84113(5) 0.91903(4) 0.54514(3) 0.0125 Uani
S1 S 0.25298(18) 0.46146(16) 0.97535(14) 0.0662 Uani
O1 O 0.8199(4) 0.9057(3) 0.3933(2) 0.0290 Uani
N1 N 0.6387(4) 0.8121(3) 0.6490(2) 0.0226 Uani
N2 N 0.0489(5) 0.6323(4) 0.8778(3) 0.0465 Uani
C1 C 0.9403(5) 0.9657(4) 0.3196(3) 0.0264 Uani
C2 C 0.9421(5) 0.9615(4) 0.2046(3) 0.0289 Uani
C3 C 0.8339(6) 0.8733(5) 0.1807(3) 0.0377 Uani
H1 H 0.758381 0.816201 0.236356 0.0450 Uiso
C4 C 0.8365(6) 0.8689(5) 0.0762(4) 0.0425 Uani
H2 H 0.763944 0.807458 0.062776 0.0510 Uiso
C13 C 0.4812(5) 0.8556(4) 0.6615(3) 0.0290 Uani
H7 H 0.462816 0.937151 0.619614 0.0350 Uiso
C14 C 0.3428(5) 0.7864(4) 0.7333(4) 0.0348 Uani
H8 H 0.232682 0.819786 0.738003 0.0420 Uiso
C15 C 0.3663(5) 0.6688(4) 0.7979(3) 0.0314 Uani
C16 C 0.5311(6) 0.6227(5) 0.7851(4) 0.0444 Uani
H9 H 0.553355 0.542025 0.826571 0.0530 Uiso
C17 C 0.6618(5) 0.6973(4) 0.7103(4) 0.0394 Uani
H10 H 0.773029 0.665300 0.702307 0.0470 Uiso
C18 C 0.2206(6) 0.5967(5) 0.8785(4) 0.0421 Uani
O11 O 0.9411(4) 0.9693(3) 0.6655(2) 0.0321 Uani
C5 C 0.9457(5) 0.9548(4) 0.9883(3) 0.0326 Uani
C32 C 0.9498(5) 0.9547(4) 0.8788(3) 0.0335 Uani
H17 H 0.876305 0.895501 0.863506 0.0400 Uiso
C26 C 0.0406(6) 0.4542(5) 0.0282(4) 0.0467 Uani
C19 C 0.9594(6) 0.5458(5) 0.9718(4) 0.0467 Uani
loop_
_atom_site_aniso_label
_atom_site_aniso_U_11
_atom_site_aniso_U_22
_atom_site_aniso_U_33
_atom_site_aniso_U_23
_atom_site_aniso_U_13
_atom_site_aniso_U_12
Cu7 0.0102 0.0105 0.0138 0.00011 0.00101 0.00056
O2 0.0326 0.0393 0.0255 -0.0063 -0.0094 -0.0026
C6 0.033 0.04 0.028 -0.0084 -0.0063 -0.0058
C31 0.032 0.041 0.0238 -0.0068 -0.0044 -0.004
O5 0.0348 0.0293 0.0213 -0.0053 -0.003 -0.0003
C27 0.0276 0.0251 0.0265 -0.0049 -0.0071 0.0057
C28 0.0282 0.034 0.0245 -0.0065 -0.0058 0.0028
C29 0.04 0.045 0.024 -0.0031 -0.0019 -0.014
C30 0.045 0.052 0.029 -0.0065 -0.0059 -0.02
S2 0.036 0.0642 0.073 0.0223 0.0059 -0.0015
N3 0.0186 0.0216 0.024 -0.0017 -0.0004 0.0001
N4 0.0427 0.0409 0.0452 -0.0024 0.0054 0.0014
C20 0.0235 0.0264 0.0305 0.0033 -0.0012 -0.0004
C21 0.0229 0.034 0.039 0.0018 0.0012 0.003
C22 0.026 0.0291 0.031 0.002 0.0026 -0.0033
C23 0.03 0.033 0.054 0.015 0.001 0.0032
C24 0.0246 0.031 0.048 0.0096 0.0046 0.0026
C25 0.0358 0.0381 0.0428 -0.0016 0.0042 -0.007
O3 0.0185 0.0212 0.041 -0.0028 -0.0014 0.0024
O4 0.0208 0.017 0.0378 -0.004 -0.0036 0.0029
C7 0.0201 0.021 0.0253 -0.0035 -0.003 0.0044
C8 0.0213 0.0183 0.03 -0.0044 -0.003 0.0028
C9 0.0188 0.0223 0.044 -0.0039 -0.003 0.0012
C10 0.02 0.0182 0.043 -0.0028 -0.001 0.0002
C11 0.0202 0.0186 0.0297 -0.0042 -0.0043 0.001
C12 0.0214 0.0185 0.0311 -0.0017 -0.0032 0.0011
O7 0.0185 0.0212 0.041 -0.0028 -0.0014 0.0024
O8 0.0208 0.017 0.0378 -0.004 -0.0036 0.0029
C33 0.0201 0.021 0.0253 -0.0035 -0.003 0.0044
C34 0.0213 0.0183 0.03 -0.0044 -0.003 0.0028
C35 0.0188 0.0223 0.044 -0.0039 -0.003 0.0012
C36 0.02 0.0182 0.043 -0.0028 -0.001 0.0002
C37 0.0202 0.0186 0.0297 -0.0042 -0.0043 0.001
C38 0.0214 0.0185 0.0311 -0.0017 -0.0032 0.0011
Cu4 0.0102 0.0105 0.0138 0.00011 0.00101 0.00056
S1 0.036 0.0642 0.073 0.0223 0.0059 -0.0015
O1 0.0348 0.0293 0.0213 -0.0053 -0.003 -0.0003
N1 0.0186 0.0216 0.024 -0.0017 -0.0004 0.0001
N2 0.0427 0.0409 0.0452 -0.0024 0.0054 0.0014
C1 0.0276 0.0251 0.0265 -0.0049 -0.0071 0.0057
C2 0.0282 0.034 0.0245 -0.0065 -0.0058 0.0028
C3 0.04 0.045 0.024 -0.0031 -0.0019 -0.014
C4 0.045 0.052 0.029 -0.0065 -0.0059 -0.02
C13 0.0235 0.0264 0.0305 0.0033 -0.0012 -0.0004
C14 0.0229 0.034 0.039 0.0018 0.0012 0.003
C15 0.026 0.0291 0.031 0.002 0.0026 -0.0033
C16 0.03 0.033 0.054 0.015 0.001 0.0032
C17 0.0246 0.031 0.048 0.0096 0.0046 0.0026
C18 0.0358 0.0381 0.0428 -0.0016 0.0042 -0.007
O11 0.0326 0.0393 0.0255 -0.0063 -0.0094 -0.0026
C5 0.032 0.041 0.0238 -0.0068 -0.0044 -0.004
C32 0.033 0.04 0.028 -0.0084 -0.0063 -0.0058
C26 0.037 0.047 0.048 0.001 -0.004 0.009
C19 0.037 0.047 0.048 0.001 -0.004 0.009
loop_
_geom_bond_atom_site_label_1
_geom_bond_atom_site_label_2
_geom_bond_site_symmetry_1
_geom_bond_site_symmetry_2
H3 C6 1_555 1_555
Cu7 O2 1_555 1_555
C6 C31 1_555 1_555
O5 C27 1_555 1_555
C27 C28 1_555 1_555
C28 C29 1_555 1_555
C29 H15 1_555 1_555
C30 C29 1_555 1_555
H16 C30 1_555 1_555
Cu7 O5 1_555 1_555
N3 C20 1_555 1_555
N4 C25 1_555 1_555
C20 H11 1_555 1_555
C21 C20 1_555 1_555
H12 C21 1_555 1_555
C22 C21 1_555 1_555
C23 C22 1_555 1_555
H13 C23 1_555 1_555
C24 N3 1_555 1_555
H14 C24 1_555 1_555
C25 S2 1_555 1_555
Cu7 N3 1_555 1_555
C22 C25 1_555 1_555
C23 C24 1_555 1_555
O4 C7 1_555 1_555
C7 O3 1_555 1_555
C8 C7 1_555 1_555
C9 C8 1_555 1_555
H4 C9 1_555 1_555
C10 C9 1_555 1_555
H5 C10 1_555 1_555
C11 C10 1_555 1_555
C12 C8 1_555 1_555
H6 C12 1_555 1_555
O7 C33 1_555 1_555
O8 C33 1_555 1_555
C33 C34 1_555 1_555
C34 C35 1_555 1_555
C35 H18 1_555 1_555
C36 C35 1_555 1_555
H19 C36 1_555 1_555
C37 C11 1_555 1_555
C38 C11 1_555 1_555
H20 C38 1_555 1_555
C12 C37 1_555 1_555
C34 C38 1_555 1_555
C36 C37 1_555 1_555
Cu4 O1 1_555 1_555
S1 C18 1_555 1_555
O1 C1 1_555 1_555
N1 Cu4 1_555 1_555
N2 C18 1_555 1_555
C1 C2 1_555 1_555
C2 C3 1_555 1_555
C3 H1 1_555 1_555
C4 C3 1_555 1_555
H2 C4 1_555 1_555
C13 N1 1_555 1_555
H7 C13 1_555 1_555
C14 C13 1_555 1_555
H8 C14 1_555 1_555
C15 C14 1_555 1_555
C16 C15 1_555 1_555
H9 C16 1_555 1_555
C17 N1 1_555 1_555
H10 C17 1_555 1_555
C18 C15 1_555 1_555
O11 Cu4 1_555 1_555
C16 C17 1_555 1_555
C32 C5 1_555 1_555
H17 C32 1_555 1_555

#END
