
###############################################################################
#
# This file contains modified crystal structure data generated from the
# MOF subset of the Cambridge Structural Database (CSD) v542 
# hosted by the Cambridge Crystallographic Data Centre (CCDC).
#
# This work is licensed under the Creative Commons
# Attribution-NonCommercial-ShareAlike 4.0 International License.
# To view a copy of this license, visit
# http://creativecommons.org/licenses/by-nc-sa/4.0/
# or send a letter to
# Creative Commons, PO Box 1866, Mountain View, CA 94042, USA.
#
# CIF created using the CSD Python API on 22 February 2021
# The structure has been converted into the P1 space group
# The structure has a 3D framework
# The original CSD entry UVASAM03 is in the monoclinic crystal system
# The framework has been calculated to contain at least 10.0% void space
# The void calculation uses a probe of radius 1.32A, grid spacing 0.4
#
###############################################################################

data_UVASAM03
_chemical_formula_moiety         '(C112 H80 N8 O16 Zn4)n'
_symmetry_cell_setting           triclinic
_symmetry_space_group_name_H-M   'P 1'
_symmetry_Int_Tables_number      1
_space_group_name_Hall           'P 1'
loop_
_symmetry_equiv_pos_site_id
_symmetry_equiv_pos_as_xyz
1 x,y,z
_cell_length_a                   12.736(2)
_cell_length_b                   23.529(2)
_cell_length_c                   8.3540(12)
_cell_angle_alpha                90
_cell_angle_beta                 99.547(10)
_cell_angle_gamma                90
_cell_volume                     2468.73
loop_
_atom_site_label
_atom_site_type_symbol
_atom_site_fract_x
_atom_site_fract_y
_atom_site_fract_z
O1 O 0.0734(2) 0.82472(12) 0.2007(4)
O2 O 0.0938(3) 0.89675(12) 0.0566(4)
C14 C 0.0620(3) 0.8487(2) 0.0684(6)
Zn3 Zn 0.14803(4) 0.89722(2) 0.29912(5)
O3 O 0.2475(2) 0.96497(13) 0.3060(4)
O4 O 0.2985(2) 0.88243(13) 0.2524(4)
C2 C 0.4120(4) 0.9562(2) 0.2171(6)
H3 H 0.941544 0.955902 0.012927
C8 C 0.5843(4) 0.9982(2) 0.1013(6)
C16 C 0.5666(4) 0.9421(2) 0.1050(6)
H11 H 0.614613 0.916624 0.066303
C19 C 0.4818(4) 0.9212(2) 0.1628(6)
H14 H 0.471115 0.881268 0.165216
C20 C 0.7524(4) 0.9948(2) 0.0032(6)
H15 H 0.753708 0.954901 0.020166
C22 C 0.3146(4) 0.9339(2) 0.2628(6)
N1 N 0.0156(3) 0.93363(16) 0.3466(5)
N2 N 0.1958(3) 0.86775(18) 0.5208(5)
C7 C 0.2149(4) 0.8982(2) 0.6506(7)
H5 H 0.201079 0.937862 0.642100
C12 C 0.0205(4) 0.98314(19) 0.4172(6)
C17 C 0.3646(4) 0.7530(3) 0.9899(8)
H12 H 0.368463 0.730743 0.896041
C23 C 0.2547(4) 0.7892(2) 0.6750(7)
H16 H 0.268917 0.749589 0.680491
C24 C 0.2535(4) 0.8765(3) 0.7976(6)
H17 H 0.265520 0.900326 0.890535
C25 C 0.3176(4) 0.7997(2) 0.9693(7)
C26 C 0.2741(4) 0.8224(3) 0.8107(7)
C28 C 0.2150(4) 0.8144(2) 0.5330(6)
H20 H 0.200643 0.791597 0.438053
C1 C 0.0044(4) 0.8463(2) 0.7805(6)
H1 H 0.034195 0.883219 0.776163
C3 C 0.0085(4) 0.8201(2) 0.9233(6)
H13 H 0.965671 0.749929 0.031148
N2_2 N 0.6958(3) 0.63225(18) 0.0208(5)
C4 C 0.1716(4) 0.5220(2) 0.0372(6)
H2 H 0.169686 0.561799 0.017812
H3_2 H 0.441544 0.455902 0.012927
C7_2 C 0.7149(4) 0.6018(2) 0.1506(7)
H5_2 H 0.701079 0.562138 0.142100
C8_2 C 0.0843(4) 0.4982(2) 0.1013(6)
C13 C 0.0140(4) 0.5330(2) 0.1597(6)
H9 H 0.024918 0.572948 0.159811
C15 C 0.9583(4) 0.8206(3) 0.6428(7)
H10 H 0.957906 0.839188 0.541782
C16_2 C 0.0666(4) 0.4421(2) 0.1050(6)
H11_2 H 0.114613 0.416624 0.066303
C17_2 C 0.8646(4) 0.7470(3) 0.4899(8)
H12_2 H 0.868463 0.769257 0.396041
C18 C 0.9636(4) 0.7687(2) 0.9300(6)
C20_2 C 0.2524(4) 0.4948(2) 0.0032(6)
H15_2 H 0.253708 0.454901 0.020166
C21 C 0.9134(4) 0.7700(3) 0.6447(7)
C23_2 C 0.7547(4) 0.7108(2) 0.1750(7)
H16_2 H 0.768917 0.750411 0.180491
C24_2 C 0.7535(4) 0.6235(3) 0.2976(6)
H17_2 H 0.765520 0.599674 0.390535
C25_2 C 0.8176(4) 0.7003(2) 0.4693(7)
H18 H 0.810109 0.678500 0.562462
C26_2 C 0.7741(4) 0.6776(3) 0.3107(7)
C27 C 0.9154(4) 0.7441(2) 0.7912(7)
H19 H 0.882179 0.708111 0.795623
C28_2 C 0.7150(4) 0.6856(2) 0.0330(6)
Zn1 Zn 0.64803(4) 0.60278(2) 0.79912(5)
N1_2 N 0.5156(3) 0.56637(16) 0.8466(5)
C5 C 0.4351(4) 0.4924(2) 0.9639(6)
C9 C 0.4234(4) 0.5909(2) 0.8176(6)
H6 H 0.417553 0.625932 0.760234
C10 C 0.3354(4) 0.5693(2) 0.8648(6)
H7 H 0.269921 0.589453 0.843373
C11 C 0.3407(4) 0.5192(2) 0.9419(6)
C12_2 C 0.5205(4) 0.51686(19) 0.9172(6)
H8 H 0.586742 0.497350 0.936328
H20_2 H 0.700643 0.708403 0.938053
O5 O 0.5734(2) 0.67528(12) 0.7007(4)
O6 O 0.5938(3) 0.60325(12) 0.5566(4)
O7 O 0.7475(2) 0.53503(13) 0.8060(4)
O8 O 0.7985(2) 0.61757(13) 0.7524(4)
C2_2 C 0.9120(4) 0.5438(2) 0.7171(6)
C6 C 0.9295(4) 0.4880(2) 0.7173(6)
H4 H 0.881965 0.462944 0.758379
C19_2 C 0.9818(4) 0.5788(2) 0.6628(6)
H14_2 H 0.971115 0.618732 0.665216
C22_2 C 0.8146(4) 0.5661(2) 0.7628(6)
C1_2 C 0.5044(4) 0.6537(2) 0.2805(6)
H1_2 H 0.534195 0.616781 0.276163
C3_2 C 0.5085(4) 0.6799(2) 0.4233(6)
C14_2 C 0.5620(3) 0.6513(2) 0.5684(6)
C15_2 C 0.4583(4) 0.6794(3) 0.1428(7)
H10_2 H 0.457906 0.660812 0.041782
C18_2 C 0.4636(4) 0.7313(2) 0.4300(6)
H13_2 H 0.465671 0.750071 0.531148
C21_2 C 0.4134(4) 0.7300(3) 0.1447(7)
H18_2 H 0.310109 0.821500 0.062462
C27_2 C 0.4154(4) 0.7559(2) 0.2912(7)
H19_2 H 0.382179 0.791889 0.295623
O3_2 O 0.7475(2) 0.46497(13) 0.3060(4)
O4_2 O 0.7985(2) 0.38243(13) 0.2524(4)
C2_3 C 0.9120(4) 0.4562(2) 0.2171(6)
C6_2 C 0.9295(4) 0.5120(2) 0.2173(6)
H4_2 H 0.881965 0.537056 0.258379
C19_3 C 0.9818(4) 0.4212(2) 0.1628(6)
H14_3 H 0.971115 0.381268 0.165216
C22_3 C 0.8146(4) 0.4339(2) 0.2628(6)
Zn2 Zn 0.64803(4) 0.39722(2) 0.29912(5)
N1_3 N 0.5156(3) 0.43363(16) 0.3466(5)
N2_3 N 0.6958(3) 0.36775(18) 0.5208(5)
C4_2 C 0.1716(4) 0.4780(2) 0.5372(6)
H2_2 H 0.169686 0.438201 0.517812
C5_2 C 0.4351(4) 0.5076(2) 0.4639(6)
H3_3 H 0.441544 0.544098 0.512927
C7_3 C 0.7149(4) 0.3982(2) 0.6506(7)
H5_3 H 0.701079 0.437862 0.642100
C8_3 C 0.0843(4) 0.5018(2) 0.6013(6)
C9_2 C 0.4234(4) 0.4091(2) 0.3176(6)
H6_2 H 0.417553 0.374068 0.260234
C10_2 C 0.3354(4) 0.4307(2) 0.3648(6)
H7_2 H 0.269921 0.410547 0.343373
C11_2 C 0.3407(4) 0.4808(2) 0.4419(6)
C12_3 C 0.5205(4) 0.48314(19) 0.4172(6)
H8_2 H 0.586742 0.502650 0.436328
C13_2 C 0.0140(4) 0.4670(2) 0.6597(6)
H9_2 H 0.024918 0.427052 0.659811
C16_3 C 0.0666(4) 0.5579(2) 0.6050(6)
H11_3 H 0.114613 0.583376 0.566303
C17_3 C 0.8646(4) 0.2530(3) 0.9899(8)
H12_3 H 0.868463 0.230743 0.896041
C20_3 C 0.2524(4) 0.5052(2) 0.5032(6)
H15_3 H 0.253708 0.545099 0.520166
C23_3 C 0.7547(4) 0.2892(2) 0.6750(7)
H16_3 H 0.768917 0.249589 0.680491
C24_3 C 0.7535(4) 0.3765(3) 0.7976(6)
H17_3 H 0.765520 0.400326 0.890535
C25_3 C 0.8176(4) 0.2997(2) 0.9693(7)
C26_3 C 0.7741(4) 0.3224(3) 0.8107(7)
C28_3 C 0.7150(4) 0.3144(2) 0.5330(6)
H20_3 H 0.700643 0.291597 0.438053
O5_2 O 0.5734(2) 0.32472(12) 0.2007(4)
O6_2 O 0.5938(3) 0.39675(12) 0.0566(4)
C14_3 C 0.5620(3) 0.3487(2) 0.0684(6)
H13_3 H 0.465671 0.249929 0.031148
O1_2 O 0.0734(2) 0.17528(12) 0.7007(4)
O2_2 O 0.0938(3) 0.10325(12) 0.5566(4)
C1_3 C 0.0044(4) 0.1537(2) 0.2805(6)
H1_3 H 0.034195 0.116781 0.276163
C3_3 C 0.0085(4) 0.1799(2) 0.4233(6)
C14_4 C 0.0620(3) 0.1513(2) 0.5684(6)
Zn3_2 Zn 0.14803(4) 0.10278(2) 0.79912(5)
N1_4 N 0.0156(3) 0.06637(16) 0.8466(5)
C12_4 C 0.0205(4) 0.01686(19) 0.9172(6)
H20_4 H 0.200643 0.208403 0.938053
O7_2 O 0.2475(2) 0.03503(13) 0.8060(4)
O8_2 O 0.2985(2) 0.11757(13) 0.7524(4)
C2_4 C 0.4120(4) 0.0438(2) 0.7171(6)
C5_3 C 0.9351(4) 0.0076(2) 0.4639(6)
H3_4 H 0.941544 0.044098 0.512927
C8_4 C 0.5843(4) 0.0018(2) 0.6013(6)
C16_4 C 0.5666(4) 0.0579(2) 0.6050(6)
H11_4 H 0.614613 0.083376 0.566303
C19_4 C 0.4818(4) 0.0788(2) 0.6628(6)
H14_4 H 0.471115 0.118732 0.665216
C20_4 C 0.7524(4) 0.0052(2) 0.5032(6)
H15_4 H 0.753708 0.045099 0.520166
C22_4 C 0.3146(4) 0.0661(2) 0.7628(6)
C15_3 C 0.9583(4) 0.1794(3) 0.1428(7)
H10_3 H 0.957906 0.160812 0.041782
C18_3 C 0.9636(4) 0.2313(2) 0.4300(6)
H13_4 H 0.965671 0.250071 0.531148
C21_3 C 0.9134(4) 0.2300(3) 0.1447(7)
H18_3 H 0.810109 0.321500 0.062462
C27_3 C 0.9154(4) 0.2559(2) 0.2912(7)
H19_3 H 0.882179 0.291889 0.295623
N2_4 N 0.1958(3) 0.13225(18) 0.0208(5)
C1_4 C 0.5044(4) 0.3463(2) 0.7805(6)
H1_4 H 0.534195 0.383219 0.776163
C3_4 C 0.5085(4) 0.3201(2) 0.9233(6)
C7_4 C 0.2149(4) 0.1018(2) 0.1506(7)
H5_4 H 0.201079 0.062138 0.142100
C15_4 C 0.4583(4) 0.3206(3) 0.6428(7)
H10_4 H 0.457906 0.339188 0.541782
C17_4 C 0.3646(4) 0.2470(3) 0.4899(8)
H12_4 H 0.368463 0.269257 0.396041
C18_4 C 0.4636(4) 0.2687(2) 0.9300(6)
C21_4 C 0.4134(4) 0.2700(3) 0.6447(7)
C23_4 C 0.2547(4) 0.2108(2) 0.1750(7)
H16_4 H 0.268917 0.250411 0.180491
C24_4 C 0.2535(4) 0.1235(3) 0.2976(6)
H17_4 H 0.265520 0.099674 0.390535
C25_4 C 0.3176(4) 0.2003(2) 0.4693(7)
H18_4 H 0.310109 0.178500 0.562462
C26_4 C 0.2741(4) 0.1776(3) 0.3107(7)
C27_4 C 0.4154(4) 0.2441(2) 0.7912(7)
H19_4 H 0.382179 0.208111 0.795623
C28_4 C 0.2150(4) 0.1856(2) 0.0330(6)
H8_3 H 0.086742 0.997350 0.936328
C4_3 C 0.6716(4) 0.0220(2) 0.0372(6)
H2_3 H 0.669686 0.061799 0.017812
C6_3 C 0.4295(4) 0.0120(2) 0.2173(6)
H4_3 H 0.381965 0.037056 0.258379
C13_3 C 0.5140(4) 0.0330(2) 0.1597(6)
H9_3 H 0.524918 0.072948 0.159811
C9_3 C 0.9234(4) 0.0909(2) 0.8176(6)
H6_3 H 0.917553 0.125932 0.760234
C10_3 C 0.8354(4) 0.0693(2) 0.8648(6)
H7_3 H 0.769921 0.089453 0.843373
C11_3 C 0.8407(4) 0.0192(2) 0.9419(6)
C5_4 C 0.9351(4) 0.9924(2) 0.9639(6)
H8_4 H 0.086742 0.002650 0.436328
C4_4 C 0.6716(4) 0.9780(2) 0.5372(6)
H2_4 H 0.669686 0.938201 0.517812
C6_4 C 0.4295(4) 0.9880(2) 0.7173(6)
H4_4 H 0.381965 0.962944 0.758379
C9_4 C 0.9234(4) 0.9091(2) 0.3176(6)
H6_4 H 0.917553 0.874068 0.260234
C10_4 C 0.8354(4) 0.9307(2) 0.3648(6)
H7_4 H 0.769921 0.910547 0.343373
C11_4 C 0.8407(4) 0.9808(2) 0.4419(6)
C13_4 C 0.5140(4) 0.9670(2) 0.6597(6)
H9_4 H 0.524918 0.927052 0.659811
loop_
_geom_bond_atom_site_label_1
_geom_bond_atom_site_label_2
_geom_bond_site_symmetry_1
_geom_bond_site_symmetry_2
O1 C14 1_555 1_555
O2 C14 1_555 1_555
Zn3 O1 1_555 1_555
O2 Zn3 1_555 1_555
O3 C22 1_555 1_555
O4 C22 1_555 1_555
C16 C8 1_555 1_555
H11 C16 1_555 1_555
C19 C2 1_555 1_555
H14 C19 1_555 1_555
H15 C20 1_555 1_555
C22 C2 1_555 1_555
Zn3 O3 1_555 1_555
O4 Zn3 1_555 1_555
C16 C19 1_555 1_555
Zn3 N1 1_555 1_555
N2 Zn3 1_555 1_555
C7 N2 1_555 1_555
H5 C7 1_555 1_555
C12 N1 1_555 1_555
C17 H12 1_555 1_555
C23 H16 1_555 1_555
C24 C7 1_555 1_555
H17 C24 1_555 1_555
C25 C17 1_555 1_555
C26 C23 1_555 1_555
C28 N2 1_555 1_555
H20 C28 1_555 1_555
C23 C28 1_555 1_555
C24 C26 1_555 1_555
C25 C26 1_555 1_555
C1 H1 1_555 1_555
C3 C1 1_555 1_555
C4 H2 1_555 1_555
C7_2 N2_2 1_555 1_555
H5_2 C7_2 1_555 1_555
C8_2 C4 1_555 1_555
H9 C13 1_555 1_555
H10 C15 1_555 1_555
C16_2 C8_2 1_555 1_555
H11_2 C16_2 1_555 1_555
C17_2 H12_2 1_555 1_555
C20_2 C4 1_555 1_555
H15_2 C20_2 1_555 1_555
C21 C15 1_555 1_555
C23_2 H16_2 1_555 1_555
C24_2 C7_2 1_555 1_555
H17_2 C24_2 1_555 1_555
C25_2 C17_2 1_555 1_555
H18 C25_2 1_555 1_555
C26_2 C23_2 1_555 1_555
C27 C18 1_555 1_555
H19 C27 1_555 1_555
C28_2 N2_2 1_555 1_555
C8_2 C13 1_555 1_555
C17_2 C21 1_555 1_555
C21 C27 1_555 1_555
C23_2 C28_2 1_555 1_555
C24_2 C26_2 1_555 1_555
C25_2 C26_2 1_555 1_555
Zn1 N1_2 1_555 1_555
N1_2 C9 1_555 1_555
C9 H6 1_555 1_555
C10 C9 1_555 1_555
H7 C10 1_555 1_555
C11 C5 1_555 1_555
C12_2 N1_2 1_555 1_555
H8 C12_2 1_555 1_555
O5 Zn1 1_555 1_555
O6 Zn1 1_555 1_555
O7 Zn1 1_555 1_555
O8 Zn1 1_555 1_555
C5 C12_2 1_555 1_555
C10 C11 1_555 1_555
O7 C22_2 1_555 1_555
O8 C22_2 1_555 1_555
C2_2 C6 1_555 1_555
C6 H4 1_555 1_555
C19_2 C2_2 1_555 1_555
H14_2 C19_2 1_555 1_555
C22_2 C2_2 1_555 1_555
O5 C14_2 1_555 1_555
O6 C14_2 1_555 1_555
C1_2 H1_2 1_555 1_555
C3_2 C1_2 1_555 1_555
C14_2 C3_2 1_555 1_555
C15_2 C1_2 1_555 1_555
H10_2 C15_2 1_555 1_555
C18_2 C3_2 1_555 1_555
H13_2 C18_2 1_555 1_555
C21_2 C15_2 1_555 1_555
C27_2 C18_2 1_555 1_555
H19_2 C27_2 1_555 1_555
C21_2 C27_2 1_555 1_555
O3_2 C22_3 1_555 1_555
O4_2 C22_3 1_555 1_555
C2_3 C6_2 1_555 1_555
C6_2 H4_2 1_555 1_555
C19_3 C2_3 1_555 1_555
H14_3 C19_3 1_555 1_555
C22_3 C2_3 1_555 1_555
Zn2 O3_2 1_555 1_555
O4_2 Zn2 1_555 1_555
Zn2 N1_3 1_555 1_555
N1_3 C9_2 1_555 1_555
N2_3 Zn2 1_555 1_555
C4_2 H2_2 1_555 1_555
C5_2 H3_3 1_555 1_555
C7_3 N2_3 1_555 1_555
H5_3 C7_3 1_555 1_555
C8_3 C4_2 1_555 1_555
C9_2 H6_2 1_555 1_555
C10_2 C9_2 1_555 1_555
H7_2 C10_2 1_555 1_555
C11_2 C5_2 1_555 1_555
C12_3 N1_3 1_555 1_555
H8_2 C12_3 1_555 1_555
H9_2 C13_2 1_555 1_555
C16_3 C8_3 1_555 1_555
H11_3 C16_3 1_555 1_555
C17_3 H12_3 1_555 1_555
C20_3 C4_2 1_555 1_555
H15_3 C20_3 1_555 1_555
C23_3 H16_3 1_555 1_555
C24_3 C7_3 1_555 1_555
H17_3 C24_3 1_555 1_555
C25_3 C17_3 1_555 1_555
C26_3 C23_3 1_555 1_555
C28_3 N2_3 1_555 1_555
H20_3 C28_3 1_555 1_555
O5_2 Zn2 1_555 1_555
O6_2 Zn2 1_555 1_555
C5_2 C12_3 1_555 1_555
C8_3 C13_2 1_555 1_555
C10_2 C11_2 1_555 1_555
C11_2 C20_3 1_555 1_555
C23_3 C28_3 1_555 1_555
C24_3 C26_3 1_555 1_555
C25_3 C26_3 1_555 1_555
O5_2 C14_3 1_555 1_555
O6_2 C14_3 1_555 1_555
O1_2 C14_4 1_555 1_555
O2_2 C14_4 1_555 1_555
C1_3 H1_3 1_555 1_555
C3_3 C1_3 1_555 1_555
C14_4 C3_3 1_555 1_555
Zn3_2 O1_2 1_555 1_555
O2_2 Zn3_2 1_555 1_555
Zn3_2 N1_4 1_555 1_555
C12_4 N1_4 1_555 1_555
O7_2 Zn3_2 1_555 1_555
O8_2 Zn3_2 1_555 1_555
O7_2 C22_4 1_555 1_555
O8_2 C22_4 1_555 1_555
C5_3 H3_4 1_555 1_555
C16_4 C8_4 1_555 1_555
H11_4 C16_4 1_555 1_555
C19_4 C2_4 1_555 1_555
H14_4 C19_4 1_555 1_555
H15_4 C20_4 1_555 1_555
C22_4 C2_4 1_555 1_555
C16_4 C19_4 1_555 1_555
H10_3 C15_3 1_555 1_555
H13_4 C18_3 1_555 1_555
C21_3 C15_3 1_555 1_555
C27_3 C18_3 1_555 1_555
H19_3 C27_3 1_555 1_555
C21_3 C27_3 1_555 1_555
C1_4 H1_4 1_555 1_555
C3_4 C1_4 1_555 1_555
C7_4 N2_4 1_555 1_555
H5_4 C7_4 1_555 1_555
C15_4 C1_4 1_555 1_555
H10_4 C15_4 1_555 1_555
C17_4 H12_4 1_555 1_555
C18_4 C3_4 1_555 1_555
C21_4 C15_4 1_555 1_555
C23_4 H16_4 1_555 1_555
C24_4 C7_4 1_555 1_555
H17_4 C24_4 1_555 1_555
C25_4 C17_4 1_555 1_555
H18_4 C25_4 1_555 1_555
C26_4 C23_4 1_555 1_555
C27_4 C18_4 1_555 1_555
H19_4 C27_4 1_555 1_555
C28_4 N2_4 1_555 1_555
C17_4 C21_4 1_555 1_555
C21_4 C27_4 1_555 1_555
C23_4 C28_4 1_555 1_555
C24_4 C26_4 1_555 1_555
C25_4 C26_4 1_555 1_555
C4_3 H2_3 1_555 1_555
C6_3 H4_3 1_555 1_555
C13_3 C6_3 1_555 1_555
H9_3 C13_3 1_555 1_555
C9_3 H6_3 1_555 1_555
C10_3 C9_3 1_555 1_555
H7_3 C10_3 1_555 1_555
C10_3 C11_3 1_555 1_555
C4_4 H2_4 1_555 1_555
C6_4 H4_4 1_555 1_555
C9_4 H6_4 1_555 1_555
C10_4 C9_4 1_555 1_555
H7_4 C10_4 1_555 1_555
C13_4 C6_4 1_555 1_555
H9_4 C13_4 1_555 1_555
C10_4 C11_4 1_555 1_555

#END
