
###############################################################################
#
# This file contains modified crystal structure data generated from the
# MOF subset of the Cambridge Structural Database (CSD) v542 
# hosted by the Cambridge Crystallographic Data Centre (CCDC).
#
# This work is licensed under the Creative Commons
# Attribution-NonCommercial-ShareAlike 4.0 International License.
# To view a copy of this license, visit
# http://creativecommons.org/licenses/by-nc-sa/4.0/
# or send a letter to
# Creative Commons, PO Box 1866, Mountain View, CA 94042, USA.
#
# CIF created using the CSD Python API on 22 February 2021
# The structure has been converted into the P1 space group
# The structure has a 3D framework
# The original CSD entry WUSFOI is in the triclinic crystal system
# The framework has been calculated to contain at least 10.0% void space
# The void calculation uses a probe of radius 1.32A, grid spacing 0.4
#
###############################################################################

data_WUSFOI
_chemical_formula_moiety         '(C56 H48 Dy4 N8 O30)n'
_symmetry_cell_setting           triclinic
_symmetry_space_group_name_H-M   'P 1'
_symmetry_Int_Tables_number      1
_space_group_name_Hall           'P 1'
loop_
_symmetry_equiv_pos_site_id
_symmetry_equiv_pos_as_xyz
1 x,y,z
_cell_length_a                   11.1129(13)
_cell_length_b                   11.370(3)
_cell_length_c                   16.233(3)
_cell_angle_alpha                75.323(10)
_cell_angle_beta                 82.96(2)
_cell_angle_gamma                75.49(2)
_cell_volume                     1917.06
loop_
_atom_site_label
_atom_site_type_symbol
_atom_site_fract_x
_atom_site_fract_y
_atom_site_fract_z
_atom_site_U_iso_or_equiv
_atom_site_thermal_displace_type
O3 O 0.0208(4) 0.9241(4) 0.9155(3) 0.0304 Uani
O6 O 0.3881(4) 0.8821(4) 0.4595(3) 0.0341 Uani
O7 O 0.3793(4) 0.8154(4) 0.3437(3) 0.0358 Uani
C8 C 0.3275(5) 0.8447(6) 0.4116(4) 0.0309 Uani
C9 C 0.1950(5) 0.8370(6) 0.4381(4) 0.0309 Uani
C10 C 0.1458(5) 0.8369(6) 0.5212(4) 0.0315 Uani
H2 H 0.197550 0.835654 0.562458 0.0380 Uiso
C11 C 0.1158(5) 0.8408(6) 0.3756(4) 0.0306 Uani
H3 H 0.147834 0.840369 0.319954 0.0370 Uiso
C21 C 0.0209(5) 0.8386(6) 0.5434(4) 0.0319 Uani
Dy5 Dy 0.58757(2) 0.83983(3) 0.37340(2) 0.0312 Uani
Dy14 Dy 0.20716(2) 0.99504(3) 0.86558(2) 0.0301 Uani
O17 O 0.2411(4) 0.8473(4) 0.7823(3) 0.0332 Uani
C29 C 0.2838(6) 0.7502(6) 0.7532(4) 0.0320 Uani
C30 C 0.2366(5) 0.6331(6) 0.7999(4) 0.0317 Uani
N5 N 0.0248(6) 0.5454(6) 0.9855(4) 0.0475 Uani
O18 O 0.3590(4) 0.2871(4) 0.7266(3) 0.0319 Uani
O19 O 0.2251(4) 0.2043(4) 0.8250(3) 0.0326 Uani
O20 O 0.3579(4) 0.7461(4) 0.6894(3) 0.0400 Uani
C31 C 0.2345(5) 0.4136(6) 0.8156(4) 0.0305 Uani
C32 C 0.2766(5) 0.2924(6) 0.7871(4) 0.0295 Uani
C33 C 0.1565(6) 0.6371(6) 0.8707(4) 0.0375 Uani
H25 H 0.131562 0.709877 0.890671 0.0450 Uiso
C34 C 0.2773(5) 0.5209(6) 0.7721(4) 0.0315 Uani
H26 H 0.332969 0.517746 0.724591 0.0380 Uiso
C35 C 0.1116(6) 0.5296(7) 0.9136(4) 0.0396 Uani
C36 C 0.1511(6) 0.4189(6) 0.8877(4) 0.0376 Uani
H27 H 0.122838 0.348587 0.917592 0.0450 Uiso
Dy7 Dy 0.41243(2) 0.16017(3) 0.62660(2) 0.0312 Uani
Dy10 Dy 0.79284(2) 0.00496(3) 0.13442(2) 0.0301 Uani
O4 O 0.4251(3) 0.0047(4) 0.7586(3) 0.0297 Uani
O10 O 0.5791(4) 0.0462(4) 0.4023(3) 0.0316 Uani
O16 O 0.7175(4) 0.1972(4) 0.0294(3) 0.0406 Uani
H23 H 0.509176 0.254552 0.012165 0.1150 Uiso
C37 C 0.0942(5) 0.0750(6) 0.0648(4) 0.0298 Uani
O24 O 0.5709(4) 0.0189(5) 0.1022(3) 0.0379 Uani
C38 C 0.5148(5) 0.0222(6) 0.1743(4) 0.0318 Uani
C39 C 0.3741(5) 0.0619(6) 0.1833(4) 0.0307 Uani
C40 C 0.3016(5) 0.0602(6) 0.1191(4) 0.0309 Uani
H28 H 0.339406 0.043191 0.067709 0.0370 Uiso
C41 C 0.1701(5) 0.0847(6) 0.1330(4) 0.0287 Uani
O27 O 0.0650(4) 0.0979(4) 0.7488(3) 0.0314 Uani
O28 O 0.3613(4) 0.1956(4) 0.4743(2) 0.0310 Uani
O30 O 0.4163(4) 0.3764(4) 0.5546(3) 0.0364 Uani
N6 N 0.0223(5) 0.1519(5) 0.3699(3) 0.0332 Uani
O31 O 0.2030(4) 0.1670(4) 0.6460(3) 0.0352 Uani
N7 N 0.1382(4) 0.1412(5) 0.3545(3) 0.0307 Uani
C47 C 0.0591(5) 0.1563(6) 0.5192(4) 0.0298 Uani
H40 H 0.143118 0.153973 0.504826 0.0360 Uiso
C48 C 0.0104(5) 0.1547(6) 0.6032(4) 0.0299 Uani
C49 C 0.1847(5) 0.1210(6) 0.2713(4) 0.0310 Uani
C50 C 0.0983(5) 0.1387(5) 0.6724(4) 0.0284 Uani
C52 C 0.3147(5) 0.0951(6) 0.2580(4) 0.0324 Uani
H41 H 0.362520 0.099988 0.299691 0.0390 Uiso
C53 C 0.1131(5) 0.1123(6) 0.2087(4) 0.0301 Uani
H42 H 0.026991 0.125122 0.218090 0.0360 Uiso
O33 O 0.7589(4) 0.1527(4) 0.2177(3) 0.0332 Uani
O36 O 0.1485(3) 0.0679(4) 0.9926(3) 0.0312 Uani
O38 O 0.9792(4) 0.0759(4) 0.0845(3) 0.0304 Uani
O40 O 0.6119(4) 0.1179(4) 0.5405(3) 0.0341 Uani
O42 O 0.6207(4) 0.1846(4) 0.6563(3) 0.0358 Uani
C12 C 0.6309(10) 0.3189(14) 0.8097(6) 0.1019 Uani
H4 H 0.653480 0.398135 0.791285 0.1520 Uiso
H5 H 0.549184 0.326971 0.792210 0.1520 Uiso
H6 H 0.689815 0.258334 0.784528 0.1520 Uiso
N4 N 0.6311(10) 0.2779(8) 0.9038(5) 0.0855 Uani
C26 C 0.8502(7) 0.2424(9) 0.8956(5) 0.0575 Uani
H19 H 0.853012 0.210054 0.845997 0.0860 Uiso
H20 H 0.917137 0.192998 0.930394 0.0860 Uiso
H21 H 0.858408 0.327369 0.878218 0.0860 Uiso
C27 C 0.7223(10) 0.2370(8) 0.9482(6) 0.0722 Uani
C28 C 0.5020(8) 0.2687(11) 0.9519(7) 0.0768 Uani
H22 H 0.441920 0.345143 0.932786 0.1150 Uiso
H24 H 0.475533 0.200569 0.940399 0.1150 Uiso
O2 O 0.8515(3) 0.9321(4) 0.0074(3) 0.0312 Uani
C46 C 0.3691(10) 0.6811(14) 0.1903(6) 0.1019 Uani
H31 H 0.346520 0.601865 0.208715 0.1520 Uiso
H32 H 0.450816 0.673029 0.207790 0.1520 Uiso
H33 H 0.310185 0.741666 0.215472 0.1520 Uiso
N8 N 0.3689(10) 0.7221(8) 0.0962(5) 0.0855 Uani
C54 C 0.1498(7) 0.7576(9) 0.1044(5) 0.0575 Uani
H43 H 0.146988 0.789946 0.154003 0.0860 Uiso
H44 H 0.082863 0.807002 0.069606 0.0860 Uiso
H45 H 0.141592 0.672631 0.121782 0.0860 Uiso
C55 C 0.2777(10) 0.7630(8) 0.0518(6) 0.0722 Uani
C56 C 0.4980(8) 0.7313(11) 0.0481(7) 0.0768 Uani
H46 H 0.558080 0.654857 0.067214 0.1150 Uiso
H48 H 0.524467 0.799431 0.059601 0.1150 Uiso
C1 C 0.7162(6) 0.2498(6) 0.2468(4) 0.0320 Uani
C2 C 0.7634(5) 0.3669(6) 0.2001(4) 0.0317 Uani
N1 N 0.9752(6) 0.4546(6) 0.0145(4) 0.0475 Uani
C3 C 0.9058(5) 0.9250(6) 0.9352(4) 0.0298 Uani
O5 O 0.4291(4) 0.9811(5) 0.8978(3) 0.0379 Uani
C4 C 0.4852(5) 0.9778(6) 0.8257(4) 0.0318 Uani
C5 C 0.6259(5) 0.9381(6) 0.8167(4) 0.0307 Uani
C6 C 0.6984(5) 0.9398(6) 0.8809(4) 0.0309 Uani
H1 H 0.660594 0.956809 0.932291 0.0370 Uiso
C7 C 0.8299(5) 0.9153(6) 0.8670(4) 0.0287 Uani
O8 O 0.9350(4) 0.9021(4) 0.2512(3) 0.0314 Uani
O9 O 0.6387(4) 0.8044(4) 0.5257(2) 0.0310 Uani
O11 O 0.6410(4) 0.7129(4) 0.2734(3) 0.0319 Uani
O12 O 0.5837(4) 0.6236(4) 0.4454(3) 0.0364 Uani
O13 O 0.7749(4) 0.7957(4) 0.1750(3) 0.0326 Uani
N2 N 0.9777(5) 0.8481(5) 0.6301(3) 0.0332 Uani
O14 O 0.6421(4) 0.2539(4) 0.3106(3) 0.0400 Uani
C13 C 0.7655(5) 0.5864(6) 0.1844(4) 0.0305 Uani
O15 O 0.7970(4) 0.8330(4) 0.3540(3) 0.0352 Uani
N3 N 0.8618(4) 0.8588(5) 0.6455(3) 0.0307 Uani
C14 C 0.7234(5) 0.7076(6) 0.2129(4) 0.0295 Uani
C15 C 0.9409(5) 0.8437(6) 0.4808(4) 0.0298 Uani
H13 H 0.856882 0.846027 0.495174 0.0360 Uiso
C16 C 0.8435(6) 0.3629(6) 0.1293(4) 0.0375 Uani
H14 H 0.868438 0.290123 0.109329 0.0450 Uiso
C17 C 0.7227(5) 0.4791(6) 0.2279(4) 0.0315 Uani
H15 H 0.667031 0.482254 0.275409 0.0380 Uiso
C18 C 0.9896(5) 0.8453(6) 0.3968(4) 0.0299 Uani
C19 C 0.8153(5) 0.8790(6) 0.7287(4) 0.0310 Uani
C20 C 0.9017(5) 0.8613(5) 0.3276(4) 0.0284 Uani
C22 C 0.6853(5) 0.9049(6) 0.7420(4) 0.0324 Uani
H16 H 0.637480 0.900012 0.700309 0.0390 Uiso
C23 C 0.8884(6) 0.4704(7) 0.0864(4) 0.0396 Uani
C24 C 0.8489(6) 0.5811(6) 0.1123(4) 0.0376 Uani
H17 H 0.877162 0.651413 0.082408 0.0450 Uiso
C25 C 0.8869(5) 0.8877(6) 0.7913(4) 0.0301 Uani
H18 H 0.973009 0.874878 0.781910 0.0360 Uiso
O23 O 0.5749(3) 0.9953(4) 0.2414(3) 0.0297 Uani
O29 O 0.4209(4) 0.9538(4) 0.5977(3) 0.0316 Uani
O32 O 0.2825(4) 0.8028(4) 0.9706(3) 0.0406 Uani
H47 H 0.490824 0.745448 0.987835 0.1150 Uiso
C42 C 0.6725(5) 0.1553(6) 0.5884(4) 0.0309 Uani
C43 C 0.8050(5) 0.1630(6) 0.5619(4) 0.0309 Uani
C44 C 0.8542(5) 0.1631(6) 0.4788(4) 0.0315 Uani
H29 H 0.802450 0.164346 0.437542 0.0380 Uiso
C45 C 0.8842(5) 0.1592(6) 0.6244(4) 0.0306 Uani
H30 H 0.852166 0.159631 0.680046 0.0370 Uiso
C51 C 0.9791(5) 0.1614(6) 0.4566(4) 0.0319 Uani
loop_
_atom_site_aniso_label
_atom_site_aniso_U_11
_atom_site_aniso_U_22
_atom_site_aniso_U_33
_atom_site_aniso_U_23
_atom_site_aniso_U_13
_atom_site_aniso_U_12
O3 0.028 0.036 0.031 -0.0111 -0.0023 -0.0107
O6 0.032 0.045 0.031 -0.0161 -0.001 -0.0121
O7 0.031 0.048 0.033 -0.017 -0.0003 -0.0107
C8 0.024 0.038 0.028 -0.009 0.001 -0.002
C9 0.029 0.032 0.035 -0.012 -0.001 -0.009
C10 0.03 0.037 0.031 -0.012 -0.008 -0.007
C11 0.026 0.038 0.029 -0.012 0.002 -0.007
C21 0.035 0.033 0.025 -0.002 -0.001 -0.008
Dy5 0.02989 0.03438 0.0316 -0.01054 1e-05 -0.00938
Dy14 0.02987 0.03102 0.03048 -0.00836 -0.00124 -0.00823
O17 0.037 0.033 0.032 -0.0108 0.0071 -0.0135
C29 0.036 0.031 0.032 -0.012 -0.001 -0.009
C30 0.033 0.03 0.034 -0.011 0.004 -0.01
N5 0.06 0.036 0.051 -0.019 0.028 -0.025
O18 0.033 0.031 0.035 -0.0133 0.0069 -0.0118
O19 0.037 0.032 0.032 -0.0131 0.0058 -0.0119
O20 0.056 0.031 0.036 -0.0139 0.016 -0.018
C31 0.033 0.03 0.03 -0.01 0 -0.008
C32 0.03 0.027 0.034 -0.009 -0.002 -0.009
C33 0.044 0.031 0.042 -0.018 0.01 -0.013
C34 0.03 0.032 0.033 -0.01 0.005 -0.009
C35 0.045 0.038 0.038 -0.012 0.018 -0.02
C36 0.041 0.036 0.039 -0.012 0.009 -0.017
Dy7 0.02989 0.03438 0.0316 -0.01054 1e-05 -0.00938
Dy10 0.02987 0.03102 0.03048 -0.00836 -0.00124 -0.00823
O4 0.0256 0.032 0.032 -0.0094 -0.0019 -0.0057
O10 0.037 0.034 0.027 -0.0067 0.0008 -0.0155
O16 0.045 0.035 0.039 0.0012 -0.011 -0.01
C37 0.034 0.027 0.03 -0.009 -0.001 -0.008
O24 0.03 0.053 0.031 -0.012 0.0012 -0.009
C38 0.026 0.034 0.035 -0.005 -0.002 -0.009
C39 0.024 0.035 0.035 -0.01 -0.002 -0.008
C40 0.031 0.035 0.026 -0.007 -0.002 -0.006
C41 0.027 0.031 0.028 -0.005 -0.002 -0.008
O27 0.029 0.036 0.03 -0.0074 0.0005 -0.0101
O28 0.027 0.034 0.032 -0.0099 -0.0005 -0.0051
O30 0.039 0.037 0.037 -0.0124 -0.0014 -0.012
N6 0.032 0.037 0.031 -0.01 -0.001 -0.007
O31 0.027 0.051 0.029 -0.0112 -0.0005 -0.0099
N7 0.026 0.038 0.029 -0.009 -0.003 -0.007
C47 0.021 0.034 0.034 -0.009 0.001 -0.006
C48 0.029 0.032 0.031 -0.007 -0.007 -0.009
C49 0.03 0.033 0.031 -0.01 0.003 -0.009
C50 0.027 0.024 0.034 -0.008 -0.004 -0.003
C52 0.029 0.037 0.031 -0.009 -0.002 -0.006
C53 0.026 0.03 0.033 -0.006 0.002 -0.007
O33 0.037 0.033 0.032 -0.0108 0.0071 -0.0135
O36 0.025 0.042 0.031 -0.0149 0.0036 -0.0117
O38 0.028 0.036 0.031 -0.0111 -0.0023 -0.0107
O40 0.032 0.045 0.031 -0.0161 -0.001 -0.0121
O42 0.031 0.048 0.033 -0.017 -0.0003 -0.0107
C12 0.081 0.171 0.044 -0.015 -0.017 -0.015
N4 0.141 0.066 0.055 -0.003 -0.033 -0.032
C26 0.041 0.065 0.056 -0.004 -0.001 -0.004
C27 0.103 0.04 0.08 -0.018 -0.039 -0.008
C28 0.043 0.09 0.084 0.002 -0.003 -0.014
O2 0.025 0.042 0.031 -0.0149 0.0036 -0.0117
C46 0.081 0.171 0.044 -0.015 -0.017 -0.015
N8 0.141 0.066 0.055 -0.003 -0.033 -0.032
C54 0.041 0.065 0.056 -0.004 -0.001 -0.004
C55 0.103 0.04 0.08 -0.018 -0.039 -0.008
C56 0.043 0.09 0.084 0.002 -0.003 -0.014
C1 0.036 0.031 0.032 -0.012 -0.001 -0.009
C2 0.033 0.03 0.034 -0.011 0.004 -0.01
N1 0.06 0.036 0.051 -0.019 0.028 -0.025
C3 0.034 0.027 0.03 -0.009 -0.001 -0.008
O5 0.03 0.053 0.031 -0.012 0.0012 -0.009
C4 0.026 0.034 0.035 -0.005 -0.002 -0.009
C5 0.024 0.035 0.035 -0.01 -0.002 -0.008
C6 0.031 0.035 0.026 -0.007 -0.002 -0.006
C7 0.027 0.031 0.028 -0.005 -0.002 -0.008
O8 0.029 0.036 0.03 -0.0074 0.0005 -0.0101
O9 0.027 0.034 0.032 -0.0099 -0.0005 -0.0051
O11 0.033 0.031 0.035 -0.0133 0.0069 -0.0118
O12 0.039 0.037 0.037 -0.0124 -0.0014 -0.012
O13 0.037 0.032 0.032 -0.0131 0.0058 -0.0119
N2 0.032 0.037 0.031 -0.01 -0.001 -0.007
O14 0.056 0.031 0.036 -0.0139 0.016 -0.018
C13 0.033 0.03 0.03 -0.01 0 -0.008
O15 0.027 0.051 0.029 -0.0112 -0.0005 -0.0099
N3 0.026 0.038 0.029 -0.009 -0.003 -0.007
C14 0.03 0.027 0.034 -0.009 -0.002 -0.009
C15 0.021 0.034 0.034 -0.009 0.001 -0.006
C16 0.044 0.031 0.042 -0.018 0.01 -0.013
C17 0.03 0.032 0.033 -0.01 0.005 -0.009
C18 0.029 0.032 0.031 -0.007 -0.007 -0.009
C19 0.03 0.033 0.031 -0.01 0.003 -0.009
C20 0.027 0.024 0.034 -0.008 -0.004 -0.003
C22 0.029 0.037 0.031 -0.009 -0.002 -0.006
C23 0.045 0.038 0.038 -0.012 0.018 -0.02
C24 0.041 0.036 0.039 -0.012 0.009 -0.017
C25 0.026 0.03 0.033 -0.006 0.002 -0.007
O23 0.0256 0.032 0.032 -0.0094 -0.0019 -0.0057
O29 0.037 0.034 0.027 -0.0067 0.0008 -0.0155
O32 0.045 0.035 0.039 0.0012 -0.011 -0.01
C42 0.024 0.038 0.028 -0.009 0.001 -0.002
C43 0.029 0.032 0.035 -0.012 -0.001 -0.009
C44 0.03 0.037 0.031 -0.012 -0.008 -0.007
C45 0.026 0.038 0.029 -0.012 0.002 -0.007
C51 0.035 0.033 0.025 -0.002 -0.001 -0.008
loop_
_geom_bond_atom_site_label_1
_geom_bond_atom_site_label_2
_geom_bond_site_symmetry_1
_geom_bond_site_symmetry_2
O3 Dy14 1_555 1_555
O6 C8 1_555 1_555
O7 C8 1_555 1_555
C8 C9 1_555 1_555
C9 C10 1_555 1_555
C10 H2 1_555 1_555
C11 C9 1_555 1_555
H3 C11 1_555 1_555
C21 C10 1_555 1_555
Dy5 O6 1_555 1_555
O7 Dy5 1_555 1_555
O17 C29 1_555 1_555
C29 C30 1_555 1_555
C30 C33 1_555 1_555
O18 C32 1_555 1_555
O19 C32 1_555 1_555
O20 C29 1_555 1_555
C31 C32 1_555 1_555
C33 H25 1_555 1_555
C34 C30 1_555 1_555
H26 C34 1_555 1_555
C35 N5 1_555 1_555
C36 C31 1_555 1_555
H27 C36 1_555 1_555
Dy7 O18 1_555 1_555
Dy14 O17 1_555 1_555
C31 C34 1_555 1_555
C33 C35 1_555 1_555
C35 C36 1_555 1_555
O16 Dy10 1_555 1_555
O24 Dy10 1_555 1_555
C39 C38 1_555 1_555
C40 C39 1_555 1_555
H28 C40 1_555 1_555
C41 C37 1_555 1_555
Dy7 O4 1_555 1_555
O28 Dy7 1_555 1_555
O30 Dy7 1_555 1_555
N6 N7 1_555 1_555
O31 Dy7 1_555 1_555
N7 C49 1_555 1_555
C47 H40 1_555 1_555
C49 C52 1_555 1_555
C50 O27 1_555 1_555
C52 C39 1_555 1_555
H41 C52 1_555 1_555
C53 C41 1_555 1_555
H42 C53 1_555 1_555
O33 Dy10 1_555 1_555
O38 Dy10 1_555 1_555
O40 Dy7 1_555 1_555
O42 Dy7 1_555 1_555
O24 C38 1_555 1_555
C40 C41 1_555 1_555
O31 C50 1_555 1_555
C47 C48 1_555 1_555
C48 C50 1_555 1_555
C49 C53 1_555 1_555
C12 H4 1_555 1_555
H5 C12 1_555 1_555
H6 C12 1_555 1_555
N4 C12 1_555 1_555
C26 H19 1_555 1_555
H20 C26 1_555 1_555
H21 C26 1_555 1_555
C28 N4 1_555 1_555
H22 C28 1_555 1_555
H24 C28 1_555 1_555
N4 C27 1_555 1_555
C26 C27 1_555 1_555
C46 H31 1_555 1_555
H32 C46 1_555 1_555
H33 C46 1_555 1_555
N8 C46 1_555 1_555
C54 H43 1_555 1_555
H44 C54 1_555 1_555
H45 C54 1_555 1_555
C56 N8 1_555 1_555
H46 C56 1_555 1_555
H48 C56 1_555 1_555
N8 C55 1_555 1_555
C54 C55 1_555 1_555
O33 C1 1_555 1_555
C1 C2 1_555 1_555
C2 C16 1_555 1_555
N1 C23 1_555 1_555
O5 C4 1_555 1_555
C4 C5 1_555 1_555
C5 C6 1_555 1_555
C6 H1 1_555 1_555
C7 C3 1_555 1_555
Dy5 O9 1_555 1_555
O8 C20 1_555 1_555
O11 Dy5 1_555 1_555
O12 Dy5 1_555 1_555
N2 N3 1_555 1_555
O14 C1 1_555 1_555
C13 C14 1_555 1_555
O15 Dy5 1_555 1_555
N3 C19 1_555 1_555
C14 O11 1_555 1_555
C15 H13 1_555 1_555
C16 H14 1_555 1_555
C17 C2 1_555 1_555
H15 C17 1_555 1_555
C19 C22 1_555 1_555
C20 O15 1_555 1_555
C22 C5 1_555 1_555
H16 C22 1_555 1_555
C23 C16 1_555 1_555
C24 C13 1_555 1_555
H17 C24 1_555 1_555
C25 C7 1_555 1_555
H18 C25 1_555 1_555
O23 Dy5 1_555 1_555
O32 Dy14 1_555 1_555
O5 Dy14 1_555 1_555
C6 C7 1_555 1_555
O13 C14 1_555 1_555
C13 C17 1_555 1_555
C15 C18 1_555 1_555
C18 C20 1_555 1_555
C19 C25 1_555 1_555
C23 C24 1_555 1_555
O40 C42 1_555 1_555
O42 C42 1_555 1_555
C42 C43 1_555 1_555
C43 C44 1_555 1_555
C44 H29 1_555 1_555
C45 C43 1_555 1_555
H30 C45 1_555 1_555
C51 C44 1_555 1_555

#END
