
###############################################################################
#
# This file contains modified crystal structure data generated from the
# MOF subset of the Cambridge Structural Database (CSD) v542 
# hosted by the Cambridge Crystallographic Data Centre (CCDC).
#
# This work is licensed under the Creative Commons
# Attribution-NonCommercial-ShareAlike 4.0 International License.
# To view a copy of this license, visit
# http://creativecommons.org/licenses/by-nc-sa/4.0/
# or send a letter to
# Creative Commons, PO Box 1866, Mountain View, CA 94042, USA.
#
# CIF created using the CSD Python API on 22 February 2021
# The structure has been converted into the P1 space group
# The structure has a 3D framework
# The original CSD entry WUSFUO is in the monoclinic crystal system
# The framework has been calculated to contain at least 10.0% void space
# The void calculation uses a probe of radius 1.32A, grid spacing 0.4
# The framework is charged, counterions have been retained in the structure
#
###############################################################################

data_WUSFUO
_chemical_formula_moiety         '(C64 H24 N8 Ni6 O30 4-)n'
_symmetry_cell_setting           triclinic
_symmetry_space_group_name_H-M   'P 1'
_symmetry_Int_Tables_number      1
_space_group_name_Hall           'P 1'
loop_
_symmetry_equiv_pos_site_id
_symmetry_equiv_pos_as_xyz
1 x,y,z
_cell_length_a                   12.7135(2)
_cell_length_b                   14.55290(10)
_cell_length_c                   13.1470(2)
_cell_angle_alpha                90
_cell_angle_beta                 118.629(2)
_cell_angle_gamma                90
_cell_volume                     2135.05
loop_
_atom_site_label
_atom_site_type_symbol
_atom_site_fract_x
_atom_site_fract_y
_atom_site_fract_z
O6 O 0.1031(5) 0.8137(4) 0.3448(5)
O8 O 0.0676(5) 0.8991(4) 0.4644(5)
C14 C 0.0435(6) 0.8311(5) 0.3965(6)
Ni10 Ni 0.22447(9) 0.94045(7) 0.47422(9)
Ni7 Ni 0.500000 0.000000 0.500000
Ni5 Ni 0.500000 0.500000 0.000000
Ni8 Ni 0.77553(9) 0.44045(7) 0.02578(9)
O1 O 0.5397(4) 0.5725(3) 0.8841(4)
O2 O 0.3867(4) 0.8872(3) 0.4952(4)
O3 O 0.8263(4) 0.5355(4) 0.1522(4)
O4 O 0.6485(4) 0.5513(3) 0.1460(4)
O5 O 0.7095(4) 0.5245(4) 0.8873(4)
O7 O 0.3137(5) 0.8248(4) 0.6015(5)
N1 N 0.7155(5) 0.6651(4) 0.5411(5)
N2 N 0.7429(5) 0.7376(4) 0.5084(5)
C1 C 0.7988(6) 0.7225(5) 0.4382(6)
C2 C 0.6156(6) 0.5716(4) 0.8471(6)
C3 C 0.5610(6) 0.7507(5) 0.5630(6)
H1 H 0.550561 0.791291 0.502281
C4 C 0.9416(6) 0.7684(5) 0.3787(6)
C5 C 0.7563(6) 0.5712(5) 0.1848(6)
C6 C 0.6466(6) 0.6815(5) 0.5999(6)
C7 C 0.5955(6) 0.6333(5) 0.7477(6)
C8 C 0.8857(7) 0.7809(5) 0.4473(6)
H2 H 0.909024 0.830696 0.500400
C9 C 0.7571(6) 0.6532(5) 0.3518(6)
H3 H 0.693268 0.614198 0.342751
C10 C 0.4916(6) 0.7585(5) 0.6172(6)
C11 C 0.8083(6) 0.6419(5) 0.2804(6)
C12 C 0.6640(6) 0.6227(5) 0.6909(6)
H4 H 0.722511 0.575416 0.714282
C13 C 0.5076(6) 0.6999(4) 0.7096(6)
H5 H 0.458082 0.706407 0.745036
C15 C 0.3931(6) 0.8270(5) 0.5708(6)
C16 C 0.9032(6) 0.6996(5) 0.2960(6)
H6 H 0.941339 0.691384 0.249695
Ni5_2 Ni 0.500000 0.500000 1.000000
Ni7_2 Ni 0.500000 1.000000 0.500000
O18 O 0.4603(4) 0.4275(3) 0.1159(4)
O19 O 0.6133(4) 0.3872(3) 0.0048(4)
O22 O 0.2905(4) 0.4755(4) 0.1127(4)
O23 O 0.8969(5) 0.3137(4) 0.1552(5)
O26 O 0.3137(5) 0.6752(4) 0.1015(5)
O27 O 0.9324(5) 0.3991(4) 0.0356(5)
Ni3 Ni 0.22447(9) 0.55955(7) 0.97422(9)
O10 O 0.6133(4) 0.1128(3) 0.5048(4)
O11 O 0.1737(4) 0.4645(4) 0.8478(4)
O12 O 0.3515(4) 0.4487(3) 0.8540(4)
O15 O 0.6863(5) 0.1752(4) 0.3985(5)
N3 N 0.2845(5) 0.3349(4) 0.4589(5)
N4 N 0.2571(5) 0.2624(4) 0.4916(5)
C17 C 0.2012(6) 0.2775(5) 0.5618(6)
C18 C 0.3844(6) 0.4284(4) 0.1529(6)
C19 C 0.4390(6) 0.2493(5) 0.4370(6)
H7 H 0.449439 0.208709 0.497719
C20 C 0.0584(6) 0.2316(5) 0.6213(6)
C21 C 0.2437(6) 0.4288(5) 0.8152(6)
C22 C 0.3534(6) 0.3185(5) 0.4001(6)
C23 C 0.4045(6) 0.3667(5) 0.2523(6)
C24 C 0.1143(7) 0.2191(5) 0.5527(6)
H8 H 0.090976 0.169304 0.499600
C25 C 0.2429(6) 0.3468(5) 0.6482(6)
H9 H 0.306732 0.385802 0.657249
C26 C 0.5084(6) 0.2415(5) 0.3828(6)
C27 C 0.1917(6) 0.3581(5) 0.7196(6)
C28 C 0.3360(6) 0.3773(5) 0.3091(6)
H10 H 0.277489 0.424584 0.285718
C29 C 0.4924(6) 0.3001(4) 0.2904(6)
H11 H 0.541918 0.293593 0.254964
C31 C 0.6069(6) 0.1730(5) 0.4292(6)
C32 C 0.0968(6) 0.3004(5) 0.7040(6)
H12 H 0.058661 0.308616 0.750305
Ni13 Ni 0.77553(9) 0.05955(7) 0.52578(9)
O20 O 0.3867(4) 0.6128(3) 0.9952(4)
O24 O 0.1031(5) 0.6863(4) 0.8448(5)
O25 O 0.6863(5) 0.3248(4) 0.8985(5)
O28 O 0.0676(5) 0.6009(4) 0.9644(5)
O14 O 0.8969(5) 0.1863(4) 0.6552(5)
O16 O 0.9324(5) 0.1009(4) 0.5356(5)
C30 C 0.9565(6) 0.1689(5) 0.6035(6)
C30_2 C 0.0435(6) 0.6689(5) 0.8965(6)
O3_2 O 0.1737(4) 0.0355(4) 0.3478(4)
O4_2 O 0.3515(4) 0.0513(3) 0.3540(4)
C1_2 C 0.2012(6) 0.2225(5) 0.0618(6)
C4_2 C 0.0584(6) 0.2684(5) 0.1213(6)
C5_2 C 0.2437(6) 0.0712(5) 0.3152(6)
C8_2 C 0.1143(7) 0.2809(5) 0.0527(6)
C9_2 C 0.2429(6) 0.1532(5) 0.1482(6)
H3_2 H 0.306732 0.114198 0.157249
C11_2 C 0.1917(6) 0.1419(5) 0.2196(6)
C16_2 C 0.0968(6) 0.1996(5) 0.2040(6)
H6_2 H 0.058661 0.191384 0.250305
O17 O 0.4603(4) 0.0725(3) 0.6159(4)
O21 O 0.2905(4) 0.0245(4) 0.6127(4)
N1_2 N 0.2845(5) 0.1651(4) 0.9589(5)
N2_2 N 0.2571(5) 0.2376(4) 0.9916(5)
C2_2 C 0.3844(6) 0.0716(4) 0.6529(6)
C3_2 C 0.4390(6) 0.2507(5) 0.9370(6)
H1_2 H 0.449439 0.291291 0.997719
C6_2 C 0.3534(6) 0.1815(5) 0.9001(6)
C7_2 C 0.4045(6) 0.1333(5) 0.7523(6)
H2_2 H 0.090976 0.330696 0.999600
C10_2 C 0.5084(6) 0.2585(5) 0.8828(6)
C12_2 C 0.3360(6) 0.1227(5) 0.8091(6)
H4_2 H 0.277489 0.075416 0.785718
C13_2 C 0.4924(6) 0.1999(4) 0.7904(6)
H5_2 H 0.541918 0.206407 0.754964
C15_2 C 0.6069(6) 0.3270(5) 0.9292(6)
O9 O 0.5397(4) 0.9275(3) 0.3841(4)
O13 O 0.7095(4) 0.9755(4) 0.3873(4)
N3_2 N 0.7155(5) 0.8349(4) 0.0411(5)
N4_2 N 0.7429(5) 0.7624(4) 0.0084(5)
C18_2 C 0.6156(6) 0.9284(4) 0.3471(6)
C19_2 C 0.5610(6) 0.7493(5) 0.0630(6)
H7_2 H 0.550561 0.708709 0.002281
C22_2 C 0.6466(6) 0.8185(5) 0.0999(6)
C23_2 C 0.5955(6) 0.8667(5) 0.2477(6)
H8_2 H 0.909024 0.669304 0.000400
C26_2 C 0.4916(6) 0.7415(5) 0.1172(6)
C28_2 C 0.6640(6) 0.8773(5) 0.1909(6)
H10_2 H 0.722511 0.924584 0.214282
C29_2 C 0.5076(6) 0.8001(4) 0.2096(6)
H11_2 H 0.458082 0.793593 0.245036
C31_2 C 0.3931(6) 0.6730(5) 0.0708(6)
O11_2 O 0.8263(4) 0.9645(4) 0.6522(4)
O12_2 O 0.6485(4) 0.9487(3) 0.6460(4)
C17_2 C 0.7988(6) 0.7775(5) 0.9382(6)
C20_2 C 0.9416(6) 0.7316(5) 0.8787(6)
C21_2 C 0.7563(6) 0.9288(5) 0.6848(6)
C24_2 C 0.8857(7) 0.7191(5) 0.9473(6)
C25_2 C 0.7571(6) 0.8468(5) 0.8518(6)
H9_2 H 0.693268 0.885802 0.842751
C27_2 C 0.8083(6) 0.8581(5) 0.7804(6)
C32_2 C 0.9032(6) 0.8004(5) 0.7960(6)
H12_2 H 0.941339 0.808616 0.749695
C14_2 C 0.9565(6) 0.3311(5) 0.1035(6)
loop_
_geom_bond_atom_site_label_1
_geom_bond_atom_site_label_2
_geom_bond_site_symmetry_1
_geom_bond_site_symmetry_2
O6 C14 1_555 1_555
O8 C14 1_555 1_555
Ni10 O6 1_555 1_555
O8 Ni10 1_555 1_555
Ni5 O4 1_555 1_555
Ni8 O3 1_555 1_555
O1 C2 1_555 1_555
O2 C15 1_555 1_555
O3 C5 1_555 1_555
O4 C5 1_555 1_555
O5 C2 1_555 1_555
O7 C15 1_555 1_555
N1 N2 1_555 1_555
N2 C1 1_555 1_555
C1 C8 1_555 1_555
C2 C7 1_555 1_555
C3 H1 1_555 1_555
C4 C8 1_555 1_555
C5 C11 1_555 1_555
C6 N1 1_555 1_555
C7 C12 1_555 1_555
C8 H2 1_555 1_555
C9 C1 1_555 1_555
H3 C9 1_555 1_555
C10 C3 1_555 1_555
C11 C9 1_555 1_555
C12 C6 1_555 1_555
H4 C12 1_555 1_555
C13 C7 1_555 1_555
H5 C13 1_555 1_555
C15 C10 1_555 1_555
C16 C4 1_555 1_555
H6 C16 1_555 1_555
Ni5_2 O1 1_555 1_555
Ni7_2 O2 1_555 1_555
Ni10 O2 1_555 1_555
O18 Ni5 1_555 1_555
O19 Ni5 1_555 1_555
O23 Ni8 1_555 1_555
O27 Ni8 1_555 1_555
Ni8 O19 1_555 1_555
O7 Ni10 1_555 1_555
C3 C6 1_555 1_555
C10 C13 1_555 1_555
C11 C16 1_555 1_555
Ni3 O11 1_555 1_555
O18 C18 1_555 1_555
O10 C31 1_555 1_555
O11 C21 1_555 1_555
O12 Ni5_2 1_555 1_555
O22 C18 1_555 1_555
O15 C31 1_555 1_555
N3 N4 1_555 1_555
N4 C17 1_555 1_555
C17 C24 1_555 1_555
C18 C23 1_555 1_555
C19 H7 1_555 1_555
C20 C24 1_555 1_555
C21 O12 1_555 1_555
C22 N3 1_555 1_555
C23 C28 1_555 1_555
C24 H8 1_555 1_555
C25 C17 1_555 1_555
H9 C25 1_555 1_555
C26 C19 1_555 1_555
C27 C21 1_555 1_555
C28 C22 1_555 1_555
H10 C28 1_555 1_555
C29 C23 1_555 1_555
H11 C29 1_555 1_555
C31 C26 1_555 1_555
C32 C20 1_555 1_555
H12 C32 1_555 1_555
Ni7 O10 1_555 1_555
Ni13 O10 1_555 1_555
O20 Ni5_2 1_555 1_555
O24 Ni3 1_555 1_555
O28 Ni3 1_555 1_555
Ni3 O20 1_555 1_555
O15 Ni13 1_555 1_555
C19 C22 1_555 1_555
C25 C27 1_555 1_555
C26 C29 1_555 1_555
C27 C32 1_555 1_555
O14 C30 1_555 1_555
O16 C30 1_555 1_555
Ni13 O14 1_555 1_555
O16 Ni13 1_555 1_555
O24 C30_2 1_555 1_555
O28 C30_2 1_555 1_555
Ni7 O4_2 1_555 1_555
O3_2 C5_2 1_555 1_555
O4_2 C5_2 1_555 1_555
C1_2 C8_2 1_555 1_555
C4_2 C8_2 1_555 1_555
C5_2 C11_2 1_555 1_555
C9_2 C1_2 1_555 1_555
H3_2 C9_2 1_555 1_555
C11_2 C9_2 1_555 1_555
C16_2 C4_2 1_555 1_555
H6_2 C16_2 1_555 1_555
O17 Ni7 1_555 1_555
C11_2 C16_2 1_555 1_555
O17 C2_2 1_555 1_555
O21 C2_2 1_555 1_555
O25 C15_2 1_555 1_555
N1_2 N2_2 1_555 1_555
C2_2 C7_2 1_555 1_555
C3_2 H1_2 1_555 1_555
C6_2 N1_2 1_555 1_555
C7_2 C12_2 1_555 1_555
C10_2 C3_2 1_555 1_555
C12_2 C6_2 1_555 1_555
H4_2 C12_2 1_555 1_555
C13_2 C7_2 1_555 1_555
H5_2 C13_2 1_555 1_555
C15_2 C10_2 1_555 1_555
C3_2 C6_2 1_555 1_555
C10_2 C13_2 1_555 1_555
O9 C18_2 1_555 1_555
O13 C18_2 1_555 1_555
O26 C31_2 1_555 1_555
N3_2 N4_2 1_555 1_555
C18_2 C23_2 1_555 1_555
C19_2 H7_2 1_555 1_555
C22_2 N3_2 1_555 1_555
C23_2 C28_2 1_555 1_555
C26_2 C19_2 1_555 1_555
C28_2 C22_2 1_555 1_555
H10_2 C28_2 1_555 1_555
C29_2 C23_2 1_555 1_555
H11_2 C29_2 1_555 1_555
C31_2 C26_2 1_555 1_555
Ni7_2 O9 1_555 1_555
C19_2 C22_2 1_555 1_555
C26_2 C29_2 1_555 1_555
O11_2 C21_2 1_555 1_555
O12_2 Ni7_2 1_555 1_555
C17_2 C24_2 1_555 1_555
C20_2 C24_2 1_555 1_555
C21_2 O12_2 1_555 1_555
C25_2 C17_2 1_555 1_555
H9_2 C25_2 1_555 1_555
C27_2 C21_2 1_555 1_555
C32_2 C20_2 1_555 1_555
H12_2 C32_2 1_555 1_555
C25_2 C27_2 1_555 1_555
C27_2 C32_2 1_555 1_555
O23 C14_2 1_555 1_555
O27 C14_2 1_555 1_555

#END
