
###############################################################################
#
# This file contains modified crystal structure data generated from the
# MOF subset of the Cambridge Structural Database (CSD) v542 
# hosted by the Cambridge Crystallographic Data Centre (CCDC).
#
# This work is licensed under the Creative Commons
# Attribution-NonCommercial-ShareAlike 4.0 International License.
# To view a copy of this license, visit
# http://creativecommons.org/licenses/by-nc-sa/4.0/
# or send a letter to
# Creative Commons, PO Box 1866, Mountain View, CA 94042, USA.
#
# CIF created using the CSD Python API on 22 February 2021
# The structure has been converted into the P1 space group
# The structure has a 3D framework
# The original CSD entry XAYKOA01 is in the monoclinic crystal system
# The framework has been calculated to contain at least 10.0% void space
# The void calculation uses a probe of radius 1.32A, grid spacing 0.4
#
###############################################################################

data_XAYKOA01
_chemical_formula_moiety         '(C44 H24 Cu4 N8 O16)n'
_symmetry_cell_setting           triclinic
_symmetry_space_group_name_H-M   'P 1'
_symmetry_Int_Tables_number      1
_space_group_name_Hall           'P 1'
loop_
_symmetry_equiv_pos_site_id
_symmetry_equiv_pos_as_xyz
1 x,y,z
_cell_length_a                   10.6291(10)
_cell_length_b                   12.6642(10)
_cell_length_c                   13.5792(13)
_cell_angle_alpha                90
_cell_angle_beta                 108.863(2)
_cell_angle_gamma                90
_cell_volume                     1729.72
loop_
_atom_site_label
_atom_site_type_symbol
_atom_site_fract_x
_atom_site_fract_y
_atom_site_fract_z
Cu5 Cu 0.11313(7) 0.07484(6) 0.03601(6)
Cu2 Cu 0.11313(7) 0.42516(6) 0.53601(6)
O1 O 0.8236(5) 0.0422(4) 0.8610(4)
O2 O 0.8251(5) 0.4824(4) 0.5596(4)
O3 O 0.9953(5) 0.3765(5) 0.6159(4)
O4 O 0.9915(5) 0.1527(5) 0.9144(5)
N1 N 0.2655(6) 0.3275(5) 0.5810(5)
N2 N 0.4663(6) 0.2705(5) 0.6320(5)
C1 C 0.8067(7) 0.3384(6) 0.6569(6)
C2 C 0.8740(7) 0.2710(6) 0.7373(5)
H1 H 0.966423 0.272133 0.762558
C3 C 0.8818(7) 0.4052(6) 0.6085(6)
C4 C 0.3882(7) 0.3584(6) 0.6062(6)
H2 H 0.417481 0.427637 0.606684
C5 C 0.6066(7) 0.2719(6) 0.6683(6)
C6 C 0.8813(7) 0.1289(7) 0.8599(6)
C7 C 0.6750(7) 0.3405(6) 0.6234(6)
H3 H 0.629096 0.386812 0.571008
C8 C 0.6718(7) 0.2052(6) 0.7436(6)
H4 H 0.625037 0.159092 0.772224
C9 C 0.8080(7) 0.2050(6) 0.7786(6)
C10 C 0.3902(7) 0.1881(6) 0.6255(6)
H5 H 0.418087 0.118738 0.641189
C11 C 0.2653(7) 0.2225(6) 0.5921(6)
H6 H 0.189942 0.180333 0.578571
Cu4 Cu 0.88687(7) 0.57484(6) 0.46399(6)
O5 O 0.1764(5) 0.5422(4) 0.6390(4)
O6 O 0.1749(5) 0.5176(4) 0.4404(4)
Cu3 Cu 0.88687(7) 0.92516(6) 0.96399(6)
O8 O 0.9915(5) 0.3473(5) 0.4144(5)
O8_2 O 0.0085(5) 0.8473(5) 0.0856(5)
O7 O 0.0047(5) 0.8765(5) 0.8841(4)
O6_2 O 0.8251(5) 0.0176(4) 0.0596(4)
O2_2 O 0.1749(5) 0.9824(4) 0.9404(4)
O4_2 O 0.0085(5) 0.6527(5) 0.5856(5)
N1_2 N 0.7345(6) 0.8275(5) 0.9190(5)
N2_2 N 0.5337(6) 0.7705(5) 0.8680(5)
C1_2 C 0.1933(7) 0.8384(6) 0.8431(6)
C2_2 C 0.1260(7) 0.7710(6) 0.7627(5)
H1_2 H 0.033577 0.772133 0.737442
C3_2 C 0.1182(7) 0.9052(6) 0.8915(6)
C4_2 C 0.6118(7) 0.8584(6) 0.8938(6)
H2_2 H 0.582519 0.927637 0.893316
C5_2 C 0.3934(7) 0.7719(6) 0.8317(6)
C6_2 C 0.1187(7) 0.6289(7) 0.6401(6)
C7_2 C 0.3250(7) 0.8405(6) 0.8766(6)
H3_2 H 0.370904 0.886812 0.928992
C8_2 C 0.3282(7) 0.7052(6) 0.7564(6)
H4_2 H 0.374963 0.659092 0.727776
C9_2 C 0.1920(7) 0.7050(6) 0.7214(6)
C10_2 C 0.6098(7) 0.6881(6) 0.8745(6)
H5_2 H 0.581913 0.618738 0.858811
C11_2 C 0.7347(7) 0.7225(6) 0.9079(6)
H6_2 H 0.810058 0.680333 0.921429
O7_2 O 0.0047(5) 0.6235(5) 0.3841(4)
O1_2 O 0.1764(5) 0.9578(4) 0.1390(4)
N1_3 N 0.7345(6) 0.6725(5) 0.4190(5)
N2_3 N 0.5337(6) 0.7295(5) 0.3680(5)
C1_3 C 0.1933(7) 0.6616(6) 0.3431(6)
C2_3 C 0.1260(7) 0.7290(6) 0.2627(5)
H1_3 H 0.033577 0.727867 0.237442
C3_3 C 0.1182(7) 0.5948(6) 0.3915(6)
C4_3 C 0.6118(7) 0.6416(6) 0.3938(6)
H2_3 H 0.582519 0.572363 0.393316
C5_3 C 0.3934(7) 0.7281(6) 0.3317(6)
C6_3 C 0.1187(7) 0.8711(7) 0.1401(6)
C7_3 C 0.3250(7) 0.6595(6) 0.3766(6)
H3_3 H 0.370904 0.613188 0.428992
C8_3 C 0.3282(7) 0.7948(6) 0.2564(6)
H4_3 H 0.374963 0.840908 0.227776
C9_3 C 0.1920(7) 0.7950(6) 0.2214(6)
C10_3 C 0.6098(7) 0.8119(6) 0.3745(6)
H5_3 H 0.581913 0.881262 0.358811
C11_3 C 0.7347(7) 0.7775(6) 0.4079(6)
H6_3 H 0.810058 0.819667 0.421429
O5_2 O 0.8236(5) 0.4578(4) 0.3610(4)
O3_2 O 0.9953(5) 0.1235(5) 0.1159(4)
N1_4 N 0.2655(6) 0.1725(5) 0.0810(5)
N2_4 N 0.4663(6) 0.2295(5) 0.1320(5)
C1_4 C 0.8067(7) 0.1616(6) 0.1569(6)
C2_4 C 0.8740(7) 0.2290(6) 0.2373(5)
H1_4 H 0.966423 0.227867 0.262558
C3_4 C 0.8818(7) 0.0948(6) 0.1085(6)
C4_4 C 0.3882(7) 0.1416(6) 0.1062(6)
H2_4 H 0.417481 0.072363 0.106684
C5_4 C 0.6066(7) 0.2281(6) 0.1683(6)
C6_4 C 0.8813(7) 0.3711(7) 0.3599(6)
C7_4 C 0.6750(7) 0.1595(6) 0.1234(6)
H3_4 H 0.629096 0.113188 0.071008
C8_4 C 0.6718(7) 0.2948(6) 0.2436(6)
H4_4 H 0.625037 0.340908 0.272224
C9_4 C 0.8080(7) 0.2950(6) 0.2786(6)
C10_4 C 0.3902(7) 0.3119(6) 0.1255(6)
H5_4 H 0.418087 0.381262 0.141189
C11_4 C 0.2653(7) 0.2775(6) 0.0921(6)
H6_4 H 0.189942 0.319667 0.078571
loop_
_geom_bond_atom_site_label_1
_geom_bond_atom_site_label_2
_geom_bond_site_symmetry_1
_geom_bond_site_symmetry_2
Cu2 N1 1_555 1_555
O1 C6 1_555 1_555
O2 C3 1_555 1_555
O3 C3 1_555 1_555
O4 C6 1_555 1_555
N1 C4 1_555 1_555
N2 C4 1_555 1_555
C1 C2 1_555 1_555
C2 H1 1_555 1_555
C3 C1 1_555 1_555
C4 H2 1_555 1_555
C5 N2 1_555 1_555
C6 C9 1_555 1_555
C7 C1 1_555 1_555
H3 C7 1_555 1_555
C8 C5 1_555 1_555
H4 C8 1_555 1_555
C9 C2 1_555 1_555
C10 N2 1_555 1_555
H5 C10 1_555 1_555
C11 N1 1_555 1_555
H6 C11 1_555 1_555
Cu4 O2 1_555 1_555
O5 Cu2 1_555 1_555
O6 Cu2 1_555 1_555
C5 C7 1_555 1_555
C8 C9 1_555 1_555
C10 C11 1_555 1_555
Cu3 N1_2 1_555 1_555
O5 C6_2 1_555 1_555
O2_2 C3_2 1_555 1_555
O7 C3_2 1_555 1_555
O4_2 C6_2 1_555 1_555
N1_2 C4_2 1_555 1_555
N2_2 C4_2 1_555 1_555
C1_2 C2_2 1_555 1_555
C2_2 H1_2 1_555 1_555
C3_2 C1_2 1_555 1_555
C4_2 H2_2 1_555 1_555
C5_2 N2_2 1_555 1_555
C6_2 C9_2 1_555 1_555
C7_2 C1_2 1_555 1_555
H3_2 C7_2 1_555 1_555
C8_2 C5_2 1_555 1_555
H4_2 C8_2 1_555 1_555
C9_2 C2_2 1_555 1_555
C10_2 N2_2 1_555 1_555
H5_2 C10_2 1_555 1_555
C11_2 N1_2 1_555 1_555
H6_2 C11_2 1_555 1_555
C5_2 C7_2 1_555 1_555
C8_2 C9_2 1_555 1_555
C10_2 C11_2 1_555 1_555
Cu4 N1_3 1_555 1_555
O1_2 C6_3 1_555 1_555
O6 C3_3 1_555 1_555
O7_2 C3_3 1_555 1_555
O8_2 C6_3 1_555 1_555
N1_3 C4_3 1_555 1_555
N2_3 C4_3 1_555 1_555
C1_3 C2_3 1_555 1_555
C2_3 H1_3 1_555 1_555
C3_3 C1_3 1_555 1_555
C4_3 H2_3 1_555 1_555
C5_3 N2_3 1_555 1_555
C6_3 C9_3 1_555 1_555
C7_3 C1_3 1_555 1_555
H3_3 C7_3 1_555 1_555
C8_3 C5_3 1_555 1_555
H4_3 C8_3 1_555 1_555
C9_3 C2_3 1_555 1_555
C10_3 N2_3 1_555 1_555
H5_3 C10_3 1_555 1_555
C11_3 N1_3 1_555 1_555
H6_3 C11_3 1_555 1_555
O5_2 Cu4 1_555 1_555
C5_3 C7_3 1_555 1_555
C8_3 C9_3 1_555 1_555
C10_3 C11_3 1_555 1_555
Cu5 N1_4 1_555 1_555
O5_2 C6_4 1_555 1_555
O6_2 C3_4 1_555 1_555
O3_2 C3_4 1_555 1_555
O8 C6_4 1_555 1_555
N1_4 C4_4 1_555 1_555
N2_4 C4_4 1_555 1_555
C1_4 C2_4 1_555 1_555
C2_4 H1_4 1_555 1_555
C3_4 C1_4 1_555 1_555
C4_4 H2_4 1_555 1_555
C5_4 N2_4 1_555 1_555
C6_4 C9_4 1_555 1_555
C7_4 C1_4 1_555 1_555
H3_4 C7_4 1_555 1_555
C8_4 C5_4 1_555 1_555
H4_4 C8_4 1_555 1_555
C9_4 C2_4 1_555 1_555
C10_4 N2_4 1_555 1_555
H5_4 C10_4 1_555 1_555
C11_4 N1_4 1_555 1_555
H6_4 C11_4 1_555 1_555
C5_4 C7_4 1_555 1_555
C8_4 C9_4 1_555 1_555
C10_4 C11_4 1_555 1_555

#END
