
###############################################################################
#
# This file contains modified crystal structure data generated from the
# MOF subset of the Cambridge Structural Database (CSD) v542 
# hosted by the Cambridge Crystallographic Data Centre (CCDC).
#
# This work is licensed under the Creative Commons
# Attribution-NonCommercial-ShareAlike 4.0 International License.
# To view a copy of this license, visit
# http://creativecommons.org/licenses/by-nc-sa/4.0/
# or send a letter to
# Creative Commons, PO Box 1866, Mountain View, CA 94042, USA.
#
# CIF created using the CSD Python API on 22 February 2021
# The structure has been converted into the P1 space group
# The structure has a 3D framework
# The original CSD entry XOZDUO is in the monoclinic crystal system
# The framework has been calculated to contain at least 10.0% void space
# The void calculation uses a probe of radius 1.32A, grid spacing 0.4
#
###############################################################################

data_XOZDUO
_chemical_formula_moiety         '(C152 H88 Cu8 N8 O28)n'
_symmetry_cell_setting           triclinic
_symmetry_space_group_name_H-M   'P 1'
_symmetry_Int_Tables_number      1
_space_group_name_Hall           'P 1'
loop_
_symmetry_equiv_pos_site_id
_symmetry_equiv_pos_as_xyz
1 x,y,z
_cell_length_a                   17.306(3)
_cell_length_b                   17.796(2)
_cell_length_c                   10.5004(15)
_cell_angle_alpha                90
_cell_angle_beta                 93.943(16)
_cell_angle_gamma                90
_cell_volume                     3226.23
loop_
_atom_site_label
_atom_site_type_symbol
_atom_site_fract_x
_atom_site_fract_y
_atom_site_fract_z
Cu5 Cu 0.000000 0.35823(5) 0.250000
Cu8 Cu 0.000000 0.500000 0.000000
Cu10 Cu -0.000000 0.500000 0.500000
Cu8_2 Cu 0.000000 0.500000 1.000000
Cu2 Cu 0.500000 0.000000 0.000000
O9 O 0.53968(18) 0.10287(18) 0.0826(3)
O14 O 0.40840(18) 0.0079(2) 0.1344(3)
Cu2_2 Cu 0.500000 0.000000 1.000000
Cu6 Cu 0.500000 0.000000 0.500000
O12 O 0.42812(16) 0.05198(18) 0.8247(3)
Cu1 Cu 0.500000 0.85823(5) 0.250000
Cu2_3 Cu 0.500000 1.000000 0.000000
O3 O 0.42215(19) 0.8355(2) 0.0863(3)
H9 H 0.325676 0.740967 0.020754
O6 O 0.92812(16) 0.44802(18) 0.3247(3)
O8 O 0.90840(18) 0.5079(2) 0.1344(3)
N2 N 0.5803(2) 0.7737(2) 0.1546(4)
C20 C 0.8895(3) 0.4908(3) 0.2440(4)
C21 C 0.8139(3) 0.5215(3) 0.2842(4)
C23 C 0.7738(3) 0.5765(3) 0.2120(4)
H12 H 0.794402 0.595301 0.138960
C24 C 0.7023(3) 0.6040(3) 0.2490(4)
C25 C 0.6132(3) 0.7158(3) 0.2192(5)
H13 H 0.602029 0.709758 0.303956
C29 C 0.5966(3) 0.7815(3) 0.0312(5)
C31 C 0.6624(3) 0.6645(3) 0.1689(5)
C32 C 0.7838(3) 0.4966(3) 0.3957(5)
H16 H 0.810167 0.460543 0.445925
C33 C 0.6734(3) 0.6710(3) 0.0395(5)
H17 H 0.702882 0.635254 0.000348
C34 C 0.6745(3) 0.5796(4) 0.3584(6)
H18 H 0.628359 0.599245 0.384548
C37 C 0.7139(3) 0.5256(4) 0.4324(5)
H21 H 0.693669 0.508616 0.506961
Cu5_2 Cu 1.000000 0.35823(5) 0.250000
Cu8_3 Cu 1.000000 0.500000 0.000000
Cu10_2 Cu 1.000000 0.500000 0.500000
O10 O 0.57188(16) 0.94802(18) 0.1753(3)
O11 O 0.42812(16) 0.94802(18) 0.3247(3)
O13 O 0.57785(19) 0.8355(2) 0.4137(3)
N3 N 0.4197(2) 0.7737(2) 0.3454(4)
Cu2_4 Cu 0.500000 1.000000 1.000000
O1 O 0.46032(18) 0.89713(18) 0.9174(3)
O2 O 0.07188(16) 0.44802(18) 0.1753(3)
O4 O 0.09160(18) 0.5079(2) 0.3656(3)
C1 C 0.1105(3) 0.4908(3) 0.2560(4)
C2 C 0.1861(3) 0.5215(3) 0.2158(4)
C3 C 0.4247(3) 0.8457(3) 0.9689(4)
C4 C 0.2262(3) 0.5765(3) 0.2880(4)
H1 H 0.205598 0.595301 0.361040
C5 C 0.2977(3) 0.6040(3) 0.2510(4)
C6 C 0.3868(3) 0.7158(3) 0.2808(5)
H2 H 0.397971 0.709758 0.196044
C7 C 0.3592(3) 0.7305(3) 0.5327(5)
C8 C 0.3812(3) 0.7894(3) 0.8826(5)
C9 C 0.3492(3) 0.7362(3) 0.6725(5)
C10 C 0.4034(3) 0.7815(3) 0.4688(5)
H3 H 0.422812 0.823334 0.513419
C11 C 0.3904(3) 0.7877(3) 0.7501(4)
H4 H 0.424174 0.821133 0.714609
C12 C 0.3376(3) 0.6645(3) 0.3311(5)
C13 C 0.2162(3) 0.4966(3) 0.1043(5)
H5 H 0.189833 0.460543 0.054075
C14 C 0.3266(3) 0.6710(3) 0.4605(5)
H6 H 0.297118 0.635254 0.499652
C15 C 0.3255(3) 0.5796(4) 0.1416(6)
H7 H 0.371641 0.599245 0.115452
C16 C 0.2961(4) 0.6895(4) 0.7274(6)
H8 H 0.266185 0.656843 0.675422
C17 C 0.3309(4) 0.7408(4) 0.9332(5)
C18 C 0.2861(3) 0.5256(4) 0.0676(5)
C19 C 0.2869(5) 0.6904(5) 0.8556(6)
H11 H 0.251915 0.658018 0.890751
O5 O 0.53968(18) 0.89713(18) 0.5826(3)
C22 C 0.5753(3) 0.8457(3) 0.5311(4)
C26 C 0.6408(3) 0.7305(3) 0.9673(5)
C27 C 0.6188(3) 0.7894(3) 0.6174(5)
C28 C 0.6508(3) 0.7362(3) 0.8275(5)
H14 H 0.577188 0.823334 0.986581
C30 C 0.6096(3) 0.7877(3) 0.7499(4)
H15 H 0.575826 0.821133 0.785391
C35 C 0.7039(4) 0.6895(4) 0.7726(6)
H19 H 0.733815 0.656843 0.824578
C36 C 0.6691(4) 0.7408(4) 0.5668(5)
H20 H 0.674324 0.740967 0.479246
C38 C 0.7131(5) 0.6904(5) 0.6444(6)
H22 H 0.748085 0.658018 0.609249
Cu6_2 Cu 0.500000 1.000000 0.500000
Cu8_4 Cu 1.000000 0.500000 1.000000
O15 O 0.59160(18) 0.9921(2) 0.8656(3)
H10 H 0.306331 0.508616 0.993039
O9_2 O 0.46032(18) 0.10287(18) 0.4174(3)
O12_2 O 0.57188(16) 0.05198(18) 0.6753(3)
O14_2 O 0.59160(18) 0.0079(2) 0.3656(3)
O15_2 O 0.40840(18) 0.9921(2) 0.6344(3)
N2_2 N 0.0803(2) 0.2737(2) 0.1546(4)
C21_2 C 0.3139(3) 0.0215(3) 0.2842(4)
C23_2 C 0.2738(3) 0.0765(3) 0.2120(4)
H12_2 H 0.294402 0.095301 0.138960
C24_2 C 0.2023(3) 0.1040(3) 0.2490(4)
C25_2 C 0.1132(3) 0.2158(3) 0.2192(5)
H13_2 H 0.102029 0.209758 0.303956
C29_2 C 0.0966(3) 0.2815(3) 0.0312(5)
C31_2 C 0.1624(3) 0.1645(3) 0.1689(5)
C33_2 C 0.1734(3) 0.1710(3) 0.0395(5)
H17_2 H 0.202882 0.135254 0.000348
C34_2 C 0.1745(3) 0.0796(4) 0.3584(6)
H18_2 H 0.128359 0.099245 0.384548
C37_2 C 0.2139(3) 0.0256(4) 0.4324(5)
H21_2 H 0.193669 0.008616 0.506961
O9_3 O 0.03968(18) 0.60287(18) 0.0826(3)
O13_2 O 0.07785(19) 0.3355(2) 0.4137(3)
O5_2 O 0.03968(18) 0.39713(18) 0.5826(3)
C22_2 C 0.0753(3) 0.3457(3) 0.5311(4)
C26_2 C 0.1408(3) 0.2305(3) 0.9673(5)
C27_2 C 0.1188(3) 0.2894(3) 0.6174(5)
C28_2 C 0.1508(3) 0.2362(3) 0.8275(5)
H14_2 H 0.077188 0.323334 0.986581
C30_2 C 0.1096(3) 0.2877(3) 0.7499(4)
H15_2 H 0.075826 0.321133 0.785391
C35_2 C 0.2039(4) 0.1895(4) 0.7726(6)
H19_2 H 0.233815 0.156843 0.824578
C36_2 C 0.1691(4) 0.2408(4) 0.5668(5)
H20_2 H 0.174324 0.240967 0.479246
C38_2 C 0.2131(5) 0.1904(5) 0.6444(6)
H22_2 H 0.248085 0.158018 0.609249
O15_3 O 0.09160(18) 0.4921(2) 0.8656(3)
C20_2 C 0.3895(3) 0.9908(3) 0.2440(4)
C32_2 C 0.2838(3) 0.9966(3) 0.3957(5)
H16_2 H 0.310167 0.960543 0.445925
O3_2 O 0.92215(19) 0.3355(2) 0.0863(3)
H9_2 H 0.825676 0.240967 0.020754
N3_2 N 0.9197(2) 0.2737(2) 0.3454(4)
O1_2 O 0.96032(18) 0.39713(18) 0.9174(3)
C2_2 C 0.6861(3) 0.0215(3) 0.2158(4)
C3_2 C 0.9247(3) 0.3457(3) 0.9689(4)
C4_2 C 0.7262(3) 0.0765(3) 0.2880(4)
H1_2 H 0.705598 0.095301 0.361040
C5_2 C 0.7977(3) 0.1040(3) 0.2510(4)
C6_2 C 0.8868(3) 0.2158(3) 0.2808(5)
H2_2 H 0.897971 0.209758 0.196044
C7_2 C 0.8592(3) 0.2305(3) 0.5327(5)
C8_2 C 0.8812(3) 0.2894(3) 0.8826(5)
C9_2 C 0.8492(3) 0.2362(3) 0.6725(5)
C10_2 C 0.9034(3) 0.2815(3) 0.4688(5)
H3_2 H 0.922812 0.323334 0.513419
C11_2 C 0.8904(3) 0.2877(3) 0.7501(4)
H4_2 H 0.924174 0.321133 0.714609
C12_2 C 0.8376(3) 0.1645(3) 0.3311(5)
C14_2 C 0.8266(3) 0.1710(3) 0.4605(5)
H6_2 H 0.797118 0.135254 0.499652
C15_2 C 0.8255(3) 0.0796(4) 0.1416(6)
H7_2 H 0.871641 0.099245 0.115452
C16_2 C 0.7961(4) 0.1895(4) 0.7274(6)
H8_2 H 0.766185 0.156843 0.675422
C17_2 C 0.8309(4) 0.2408(4) 0.9332(5)
C18_2 C 0.7861(3) 0.0256(4) 0.0676(5)
C19_2 C 0.7869(5) 0.1904(5) 0.8556(6)
H11_2 H 0.751915 0.158018 0.890751
O12_3 O 0.92812(16) 0.55198(18) 0.8247(3)
H10_2 H 0.806331 0.008616 0.993039
C1_2 C 0.6105(3) 0.9908(3) 0.2560(4)
C13_2 C 0.7162(3) 0.9966(3) 0.1043(5)
H5_2 H 0.689833 0.960543 0.054075
O12_4 O 0.07188(16) 0.55198(18) 0.6753(3)
O9_4 O 0.96032(18) 0.60287(18) 0.4174(3)
O15_4 O 0.90840(18) 0.4921(2) 0.6344(3)
Cu4 Cu 0.000000 0.64177(5) 0.750000
H10_3 H 0.693669 0.491384 0.006961
N1 N 0.5803(2) 0.2263(2) 0.6546(4)
C1_3 C 0.8895(3) 0.5092(3) 0.7440(4)
C2_3 C 0.8139(3) 0.4785(3) 0.7842(4)
C3_3 C 0.5753(3) 0.1543(3) 0.0311(4)
C4_3 C 0.7738(3) 0.4235(3) 0.7120(4)
H1_3 H 0.794402 0.404699 0.638960
C5_3 C 0.7023(3) 0.3960(3) 0.7490(4)
C6_3 C 0.6132(3) 0.2842(3) 0.7192(5)
H2_3 H 0.602029 0.290242 0.803956
C7_3 C 0.6408(3) 0.2695(3) 0.4673(5)
C8_3 C 0.6188(3) 0.2106(3) 0.1174(5)
C9_3 C 0.6508(3) 0.2638(3) 0.3275(5)
C10_3 C 0.5966(3) 0.2185(3) 0.5312(5)
H3_3 H 0.577188 0.176666 0.486581
C11_3 C 0.6096(3) 0.2123(3) 0.2499(4)
H4_3 H 0.575826 0.178867 0.285391
C12_3 C 0.6624(3) 0.3355(3) 0.6689(5)
C13_3 C 0.7838(3) 0.5034(3) 0.8957(5)
H5_3 H 0.810167 0.539457 0.945925
C14_3 C 0.6734(3) 0.3290(3) 0.5395(5)
H6_3 H 0.702882 0.364746 0.500348
C15_3 C 0.6745(3) 0.4204(4) 0.8584(6)
H7_3 H 0.628359 0.400755 0.884548
C16_3 C 0.7039(4) 0.3105(4) 0.2726(6)
H8_3 H 0.733815 0.343157 0.324578
C17_3 C 0.6691(4) 0.2592(4) 0.0668(5)
C18_3 C 0.7139(3) 0.4744(4) 0.9324(5)
C19_3 C 0.7131(5) 0.3096(5) 0.1444(6)
H11_3 H 0.748085 0.341982 0.109249
O7 O 0.42215(19) 0.1645(2) 0.5863(3)
C22_3 C 0.4247(3) 0.1543(3) 0.4689(4)
C26_3 C 0.3592(3) 0.2695(3) 0.0327(5)
C27_3 C 0.3812(3) 0.2106(3) 0.3826(5)
C28_3 C 0.3492(3) 0.2638(3) 0.1725(5)
H14_3 H 0.422812 0.176666 0.013419
C30_3 C 0.3904(3) 0.2123(3) 0.2501(4)
H15_3 H 0.424174 0.178867 0.214609
C35_3 C 0.2961(4) 0.3105(4) 0.2274(6)
H19_3 H 0.266185 0.343157 0.175422
C36_3 C 0.3309(4) 0.2592(4) 0.4332(5)
H20_3 H 0.325676 0.259033 0.520754
C38_3 C 0.2869(5) 0.3096(5) 0.3556(6)
H22_3 H 0.251915 0.341982 0.390751
Cu3 Cu 0.500000 0.14177(5) 0.750000
Cu4_2 Cu 1.000000 0.64177(5) 0.750000
O3_3 O 0.57785(19) 0.1645(2) 0.9137(3)
H9_3 H 0.674324 0.259033 0.979246
N2_3 N 0.4197(2) 0.2263(2) 0.8454(4)
C20_3 C 0.1105(3) 0.5092(3) 0.7560(4)
C21_3 C 0.1861(3) 0.4785(3) 0.7158(4)
C23_3 C 0.2262(3) 0.4235(3) 0.7880(4)
H12_3 H 0.205598 0.404699 0.861040
C24_3 C 0.2977(3) 0.3960(3) 0.7510(4)
C25_3 C 0.3868(3) 0.2842(3) 0.7808(5)
H13_3 H 0.397971 0.290242 0.696044
C29_3 C 0.4034(3) 0.2185(3) 0.9688(5)
C31_3 C 0.3376(3) 0.3355(3) 0.8311(5)
C32_3 C 0.2162(3) 0.5034(3) 0.6043(5)
H16_3 H 0.189833 0.539457 0.554075
C33_3 C 0.3266(3) 0.3290(3) 0.9605(5)
H17_3 H 0.297118 0.364746 0.999652
C34_3 C 0.3255(3) 0.4204(4) 0.6416(6)
H18_3 H 0.371641 0.400755 0.615452
C37_3 C 0.2861(3) 0.4744(4) 0.5676(5)
H21_3 H 0.306331 0.491384 0.493039
C1_4 C 0.3895(3) 0.0092(3) 0.7440(4)
C13_4 C 0.2838(3) 0.0034(3) 0.8957(5)
H5_4 H 0.310167 0.039457 0.945925
H10_4 H 0.193669 0.991384 0.006961
N1_2 N 0.0803(2) 0.7263(2) 0.6546(4)
C2_4 C 0.3139(3) 0.9785(3) 0.7842(4)
C3_4 C 0.0753(3) 0.6543(3) 0.0311(4)
C4_4 C 0.2738(3) 0.9235(3) 0.7120(4)
H1_4 H 0.294402 0.904699 0.638960
C5_4 C 0.2023(3) 0.8960(3) 0.7490(4)
C6_4 C 0.1132(3) 0.7842(3) 0.7192(5)
H2_4 H 0.102029 0.790242 0.803956
C7_4 C 0.1408(3) 0.7695(3) 0.4673(5)
C8_4 C 0.1188(3) 0.7106(3) 0.1174(5)
C9_4 C 0.1508(3) 0.7638(3) 0.3275(5)
C10_4 C 0.0966(3) 0.7185(3) 0.5312(5)
H3_4 H 0.077188 0.676666 0.486581
C11_4 C 0.1096(3) 0.7123(3) 0.2499(4)
H4_4 H 0.075826 0.678867 0.285391
C12_4 C 0.1624(3) 0.8355(3) 0.6689(5)
C14_4 C 0.1734(3) 0.8290(3) 0.5395(5)
H6_4 H 0.202882 0.864746 0.500348
C15_4 C 0.1745(3) 0.9204(4) 0.8584(6)
H7_4 H 0.128359 0.900755 0.884548
C16_4 C 0.2039(4) 0.8105(4) 0.2726(6)
H8_4 H 0.233815 0.843157 0.324578
C17_4 C 0.1691(4) 0.7592(4) 0.0668(5)
C18_4 C 0.2139(3) 0.9744(4) 0.9324(5)
C19_4 C 0.2131(5) 0.8096(5) 0.1444(6)
H11_4 H 0.248085 0.841982 0.109249
O3_4 O 0.07785(19) 0.6645(2) 0.9137(3)
H9_4 H 0.174324 0.759033 0.979246
C20_4 C 0.6105(3) 0.0092(3) 0.7560(4)
C32_4 C 0.7162(3) 0.0034(3) 0.6043(5)
H16_4 H 0.689833 0.039457 0.554075
O7_2 O 0.92215(19) 0.6645(2) 0.5863(3)
C22_4 C 0.9247(3) 0.6543(3) 0.4689(4)
C26_4 C 0.8592(3) 0.7695(3) 0.0327(5)
C27_4 C 0.8812(3) 0.7106(3) 0.3826(5)
C28_4 C 0.8492(3) 0.7638(3) 0.1725(5)
H14_4 H 0.922812 0.676666 0.013419
C30_4 C 0.8904(3) 0.7123(3) 0.2501(4)
H15_4 H 0.924174 0.678867 0.214609
C35_4 C 0.7961(4) 0.8105(4) 0.2274(6)
H19_4 H 0.766185 0.843157 0.175422
C36_4 C 0.8309(4) 0.7592(4) 0.4332(5)
H20_4 H 0.825676 0.759033 0.520754
C38_4 C 0.7869(5) 0.8096(5) 0.3556(6)
H22_4 H 0.751915 0.841982 0.390751
N2_4 N 0.9197(2) 0.7263(2) 0.8454(4)
C21_4 C 0.6861(3) 0.9785(3) 0.7158(4)
C23_4 C 0.7262(3) 0.9235(3) 0.7880(4)
H12_4 H 0.705598 0.904699 0.861040
C24_4 C 0.7977(3) 0.8960(3) 0.7510(4)
C25_4 C 0.8868(3) 0.7842(3) 0.7808(5)
H13_4 H 0.897971 0.790242 0.696044
C29_4 C 0.9034(3) 0.7185(3) 0.9688(5)
C31_4 C 0.8376(3) 0.8355(3) 0.8311(5)
C33_4 C 0.8266(3) 0.8290(3) 0.9605(5)
H17_4 H 0.797118 0.864746 0.999652
C34_4 C 0.8255(3) 0.9204(4) 0.6416(6)
H18_4 H 0.871641 0.900755 0.615452
C37_4 C 0.7861(3) 0.9744(4) 0.5676(5)
H21_4 H 0.806331 0.991384 0.493039
loop_
_geom_bond_atom_site_label_1
_geom_bond_atom_site_label_2
_geom_bond_site_symmetry_1
_geom_bond_site_symmetry_2
O9 Cu2 1_555 1_555
O14 Cu2 1_555 1_555
O12 Cu2_2 1_555 1_555
Cu1 O3 1_555 1_555
O6 C20 1_555 1_555
O8 C20 1_555 1_555
N2 Cu1 1_555 1_555
C20 C21 1_555 1_555
C21 C23 1_555 1_555
C23 H12 1_555 1_555
C24 C23 1_555 1_555
C25 N2 1_555 1_555
H13 C25 1_555 1_555
C29 N2 1_555 1_555
C31 C24 1_555 1_555
C32 C21 1_555 1_555
H16 C32 1_555 1_555
H17 C33 1_555 1_555
C34 C24 1_555 1_555
H18 C34 1_555 1_555
C37 C32 1_555 1_555
H21 C37 1_555 1_555
Cu5_2 O6 1_555 1_555
Cu8_3 O8 1_555 1_555
Cu10_2 O6 1_555 1_555
O10 Cu1 1_555 1_555
O11 Cu1 1_555 1_555
O13 Cu1 1_555 1_555
N3 Cu1 1_555 1_555
Cu2_3 O10 1_555 1_555
C25 C31 1_555 1_555
C31 C33 1_555 1_555
C34 C37 1_555 1_555
Cu2_4 O1 1_555 1_555
O1 C3 1_555 1_555
O2 C1 1_555 1_555
O4 C1 1_555 1_555
N3 C6 1_555 1_555
C1 C2 1_555 1_555
C2 C4 1_555 1_555
C3 C8 1_555 1_555
C4 H1 1_555 1_555
C5 C4 1_555 1_555
C6 H2 1_555 1_555
C7 C9 1_555 1_555
C8 C11 1_555 1_555
C9 C11 1_555 1_555
C10 N3 1_555 1_555
H3 C10 1_555 1_555
C11 H4 1_555 1_555
C12 C5 1_555 1_555
C13 C2 1_555 1_555
H5 C13 1_555 1_555
C14 C7 1_555 1_555
H6 C14 1_555 1_555
C15 C5 1_555 1_555
H7 C15 1_555 1_555
C16 C9 1_555 1_555
H8 C16 1_555 1_555
C17 C8 1_555 1_555
C18 C13 1_555 1_555
C19 C16 1_555 1_555
H11 C19 1_555 1_555
O5 C22 1_555 1_555
O13 C22 1_555 1_555
C22 C27 1_555 1_555
C26 C28 1_555 1_555
C27 C30 1_555 1_555
C28 C30 1_555 1_555
C30 H15 1_555 1_555
C35 C28 1_555 1_555
H19 C35 1_555 1_555
C36 C27 1_555 1_555
H20 C36 1_555 1_555
C38 C35 1_555 1_555
H22 C38 1_555 1_555
Cu5 O2 1_555 1_555
Cu6_2 O5 1_555 1_555
Cu8 O2 1_555 1_555
Cu10 O4 1_555 1_555
O15 Cu2_4 1_555 1_555
C6 C12 1_555 1_555
C7 C10 1_555 1_555
C12 C14 1_555 1_555
C15 C18 1_555 1_555
C17 C19 1_555 1_555
C36 C38 1_555 1_555
O9_2 Cu6 1_555 1_555
O12_2 Cu6 1_555 1_555
O14_2 Cu6 1_555 1_555
O15_2 Cu6_2 1_555 1_555
Cu6_2 O11 1_555 1_555
N2_2 Cu5 1_555 1_555
C21_2 C23_2 1_555 1_555
C23_2 H12_2 1_555 1_555
C24_2 C23_2 1_555 1_555
C25_2 N2_2 1_555 1_555
H13_2 C25_2 1_555 1_555
C29_2 N2_2 1_555 1_555
C31_2 C24_2 1_555 1_555
H17_2 C33_2 1_555 1_555
C34_2 C24_2 1_555 1_555
H18_2 C34_2 1_555 1_555
H21_2 C37_2 1_555 1_555
O9_3 Cu8 1_555 1_555
O13_2 Cu5 1_555 1_555
C25_2 C31_2 1_555 1_555
C31_2 C33_2 1_555 1_555
C34_2 C37_2 1_555 1_555
O5_2 C22_2 1_555 1_555
O13_2 C22_2 1_555 1_555
C22_2 C27_2 1_555 1_555
C26_2 C28_2 1_555 1_555
C27_2 C30_2 1_555 1_555
C28_2 C30_2 1_555 1_555
C30_2 H15_2 1_555 1_555
C35_2 C28_2 1_555 1_555
H19_2 C35_2 1_555 1_555
C36_2 C27_2 1_555 1_555
H20_2 C36_2 1_555 1_555
C38_2 C35_2 1_555 1_555
H22_2 C38_2 1_555 1_555
Cu10 O5_2 1_555 1_555
O15_3 Cu8_2 1_555 1_555
C36_2 C38_2 1_555 1_555
O11 C20_2 1_555 1_555
H16_2 C32_2 1_555 1_555
Cu5_2 O3_2 1_555 1_555
N3_2 Cu5_2 1_555 1_555
Cu8_4 O1_2 1_555 1_555
O1_2 C3_2 1_555 1_555
N3_2 C6_2 1_555 1_555
C2_2 C4_2 1_555 1_555
C3_2 C8_2 1_555 1_555
C4_2 H1_2 1_555 1_555
C5_2 C4_2 1_555 1_555
C6_2 H2_2 1_555 1_555
C7_2 C9_2 1_555 1_555
C8_2 C11_2 1_555 1_555
C9_2 C11_2 1_555 1_555
C10_2 N3_2 1_555 1_555
H3_2 C10_2 1_555 1_555
C11_2 H4_2 1_555 1_555
C12_2 C5_2 1_555 1_555
C14_2 C7_2 1_555 1_555
H6_2 C14_2 1_555 1_555
C15_2 C5_2 1_555 1_555
H7_2 C15_2 1_555 1_555
C16_2 C9_2 1_555 1_555
H8_2 C16_2 1_555 1_555
C17_2 C8_2 1_555 1_555
C19_2 C16_2 1_555 1_555
H11_2 C19_2 1_555 1_555
O12_3 Cu8_4 1_555 1_555
C6_2 C12_2 1_555 1_555
C7_2 C10_2 1_555 1_555
C12_2 C14_2 1_555 1_555
C15_2 C18_2 1_555 1_555
C17_2 C19_2 1_555 1_555
O10 C1_2 1_555 1_555
H5_2 C13_2 1_555 1_555
O12_4 Cu10 1_555 1_555
O9_4 Cu10_2 1_555 1_555
O15_4 Cu10_2 1_555 1_555
O9 C3_3 1_555 1_555
O12_3 C1_3 1_555 1_555
O15_4 C1_3 1_555 1_555
N1 C6_3 1_555 1_555
C1_3 C2_3 1_555 1_555
C2_3 C4_3 1_555 1_555
C3_3 C8_3 1_555 1_555
C4_3 H1_3 1_555 1_555
C5_3 C4_3 1_555 1_555
C6_3 H2_3 1_555 1_555
C7_3 C9_3 1_555 1_555
C8_3 C11_3 1_555 1_555
C9_3 C11_3 1_555 1_555
C10_3 N1 1_555 1_555
H3_3 C10_3 1_555 1_555
C11_3 H4_3 1_555 1_555
C12_3 C5_3 1_555 1_555
C13_3 C2_3 1_555 1_555
H5_3 C13_3 1_555 1_555
C14_3 C7_3 1_555 1_555
H6_3 C14_3 1_555 1_555
C15_3 C5_3 1_555 1_555
H7_3 C15_3 1_555 1_555
C16_3 C9_3 1_555 1_555
H8_3 C16_3 1_555 1_555
C17_3 C8_3 1_555 1_555
C18_3 C13_3 1_555 1_555
C19_3 C16_3 1_555 1_555
H11_3 C19_3 1_555 1_555
O9_2 C22_3 1_555 1_555
O7 C22_3 1_555 1_555
C22_3 C27_3 1_555 1_555
C26_3 C28_3 1_555 1_555
C27_3 C30_3 1_555 1_555
C28_3 C30_3 1_555 1_555
C30_3 H15_3 1_555 1_555
C35_3 C28_3 1_555 1_555
H19_3 C35_3 1_555 1_555
C36_3 C27_3 1_555 1_555
H20_3 C36_3 1_555 1_555
C38_3 C35_3 1_555 1_555
H22_3 C38_3 1_555 1_555
Cu3 N1 1_555 1_555
Cu4_2 O12_3 1_555 1_555
C6_3 C12_3 1_555 1_555
C7_3 C10_3 1_555 1_555
C12_3 C14_3 1_555 1_555
C15_3 C18_3 1_555 1_555
C17_3 C19_3 1_555 1_555
O7 Cu3 1_555 1_555
C36_3 C38_3 1_555 1_555
Cu3 O3_3 1_555 1_555
O12_4 C20_3 1_555 1_555
O15_3 C20_3 1_555 1_555
N2_3 Cu3 1_555 1_555
C20_3 C21_3 1_555 1_555
C21_3 C23_3 1_555 1_555
C23_3 H12_3 1_555 1_555
C24_3 C23_3 1_555 1_555
C25_3 N2_3 1_555 1_555
H13_3 C25_3 1_555 1_555
C29_3 N2_3 1_555 1_555
C31_3 C24_3 1_555 1_555
C32_3 C21_3 1_555 1_555
H16_3 C32_3 1_555 1_555
H17_3 C33_3 1_555 1_555
C34_3 C24_3 1_555 1_555
H18_3 C34_3 1_555 1_555
C37_3 C32_3 1_555 1_555
H21_3 C37_3 1_555 1_555
Cu4 O12_4 1_555 1_555
O12 Cu3 1_555 1_555
O12_2 Cu3 1_555 1_555
C25_3 C31_3 1_555 1_555
C31_3 C33_3 1_555 1_555
C34_3 C37_3 1_555 1_555
O12 C1_4 1_555 1_555
H5_4 C13_4 1_555 1_555
O9_3 C3_4 1_555 1_555
N1_2 C6_4 1_555 1_555
C2_4 C4_4 1_555 1_555
C3_4 C8_4 1_555 1_555
C4_4 H1_4 1_555 1_555
C5_4 C4_4 1_555 1_555
C6_4 H2_4 1_555 1_555
C7_4 C9_4 1_555 1_555
C8_4 C11_4 1_555 1_555
C9_4 C11_4 1_555 1_555
C10_4 N1_2 1_555 1_555
H3_4 C10_4 1_555 1_555
C11_4 H4_4 1_555 1_555
C12_4 C5_4 1_555 1_555
C14_4 C7_4 1_555 1_555
H6_4 C14_4 1_555 1_555
C15_4 C5_4 1_555 1_555
H7_4 C15_4 1_555 1_555
C16_4 C9_4 1_555 1_555
H8_4 C16_4 1_555 1_555
C17_4 C8_4 1_555 1_555
C19_4 C16_4 1_555 1_555
H11_4 C19_4 1_555 1_555
Cu4 N1_2 1_555 1_555
C6_4 C12_4 1_555 1_555
C7_4 C10_4 1_555 1_555
C12_4 C14_4 1_555 1_555
C15_4 C18_4 1_555 1_555
C17_4 C19_4 1_555 1_555
Cu4 O3_4 1_555 1_555
O12_2 C20_4 1_555 1_555
H16_4 C32_4 1_555 1_555
O9_4 C22_4 1_555 1_555
O7_2 C22_4 1_555 1_555
C22_4 C27_4 1_555 1_555
C26_4 C28_4 1_555 1_555
C27_4 C30_4 1_555 1_555
C28_4 C30_4 1_555 1_555
C30_4 H15_4 1_555 1_555
C35_4 C28_4 1_555 1_555
H19_4 C35_4 1_555 1_555
C36_4 C27_4 1_555 1_555
H20_4 C36_4 1_555 1_555
C38_4 C35_4 1_555 1_555
H22_4 C38_4 1_555 1_555
O7_2 Cu4_2 1_555 1_555
C36_4 C38_4 1_555 1_555
N2_4 Cu4_2 1_555 1_555
C21_4 C23_4 1_555 1_555
C23_4 H12_4 1_555 1_555
C24_4 C23_4 1_555 1_555
C25_4 N2_4 1_555 1_555
H13_4 C25_4 1_555 1_555
C29_4 N2_4 1_555 1_555
C31_4 C24_4 1_555 1_555
H17_4 C33_4 1_555 1_555
C34_4 C24_4 1_555 1_555
H18_4 C34_4 1_555 1_555
H21_4 C37_4 1_555 1_555
C25_4 C31_4 1_555 1_555
C31_4 C33_4 1_555 1_555
C34_4 C37_4 1_555 1_555

#END
