
###############################################################################
#
# This file contains modified crystal structure data generated from the
# MOF subset of the Cambridge Structural Database (CSD) v542 
# hosted by the Cambridge Crystallographic Data Centre (CCDC).
#
# This work is licensed under the Creative Commons
# Attribution-NonCommercial-ShareAlike 4.0 International License.
# To view a copy of this license, visit
# http://creativecommons.org/licenses/by-nc-sa/4.0/
# or send a letter to
# Creative Commons, PO Box 1866, Mountain View, CA 94042, USA.
#
# CIF created using the CSD Python API on 22 February 2021
# The structure has been converted into the P1 space group
# The structure has a 3D framework
# The original CSD entry XOZFAW is in the monoclinic crystal system
# The framework has been calculated to contain at least 10.0% void space
# The void calculation uses a probe of radius 1.32A, grid spacing 0.4
# The framework is charged, counterions have been retained in the structure
# H atom positions have been added when not included in the experimental data
#
###############################################################################

data_XOZFAW
_chemical_formula_moiety         '(C56 H32 Cu8 Li6 N2 O30 6+)n'
_symmetry_cell_setting           triclinic
_symmetry_space_group_name_H-M   'P 1'
_symmetry_Int_Tables_number      1
_space_group_name_Hall           'P 1'
loop_
_symmetry_equiv_pos_site_id
_symmetry_equiv_pos_as_xyz
1 x,y,z
_cell_length_a                   8.1562(3)
_cell_length_b                   22.4593(5)
_cell_length_c                   11.2204(4)
_cell_angle_alpha                90
_cell_angle_beta                 100.270(3)
_cell_angle_gamma                90
_cell_volume                     2022.45
loop_
_atom_site_label
_atom_site_type_symbol
_atom_site_fract_x
_atom_site_fract_y
_atom_site_fract_z
Cu9 Cu 0.19334(8) 0.44207(3) 0.77847(6)
N1 N 0.7033(5) 0.55866(15) 0.0451(3)
H5 H 0.844914 0.492265 0.009245
H6 H 0.547986 0.625994 0.041228
Cu6 Cu 0.80666(8) 0.55793(3) 0.22153(6)
Cu2 Cu 0.11591(10) 0.59176(3) 0.40200(7)
O1 O 0.2989(4) 0.85342(14) 0.7224(3)
O3 O 0.2404(5) 0.53006(13) 0.7832(3)
O4 O 0.5146(5) 0.82848(14) 0.8684(3)
O5 O 0.9300(5) 0.44866(16) 0.8325(3)
O6 O 0.1592(5) 0.55631(14) 0.5902(3)
O7 O 0.7786(5) 0.48261(16) 0.6623(3)
O8 O 0.3316(6) 0.62659(19) 0.4140(5)
C1 C 0.4138(6) 0.64732(18) 0.8119(4)
C2 C 0.4487(6) 0.70756(18) 0.8330(4)
H3 H 0.542515 0.718572 0.888493
C3 C 0.2201(6) 0.56742(18) 0.6967(4)
C4 C 0.2717(6) 0.63097(18) 0.7276(4)
C5 C 0.6081(6) 0.56292(19) 0.7958(4)
H4 H 0.575688 0.564059 0.712046
C6 C 0.3458(6) 0.75158(18) 0.7724(4)
C7 C 0.3899(6) 0.81653(18) 0.7904(4)
C8 C 0.7690(6) 0.52068(19) 0.9732(4)
C9 C 0.5367(6) 0.60160(17) 0.8679(4)
C10 C 0.5910(6) 0.59887(18) 0.9923(4)
C11 C 0.7287(6) 0.52214(19) 0.8488(4)
C12 C 0.2054(6) 0.73497(19) 0.6897(4)
H7 H 0.135588 0.764010 0.649097
C13 C 0.1694(6) 0.6756(2) 0.6677(4)
H8 H 0.075296 0.665040 0.612022
C14 C 0.8198(6) 0.4811(2) 0.7758(4)
Li1 Li 0.000000 0.500000 0.500000
O10 O 0.1053(4) 0.44114(13) 0.6101(3)
Cu10 Cu 0.30666(8) 0.94207(3) 0.72153(6)
Cu13 Cu 0.88409(10) 0.40824(3) 0.59800(7)
Cu14 Cu 0.61591(10) 0.90824(3) 0.90200(7)
O17 O 0.2011(4) 0.35342(14) 0.7776(3)
O20 O 0.0146(5) 0.67152(14) 0.3684(3)
O22 O 0.0700(5) 0.55134(16) 0.1675(3)
O24 O 0.2214(5) 0.51739(16) 0.3377(3)
N4 N 0.2967(5) 0.44134(15) 0.9549(3)
O2 O 0.8947(4) 0.55886(13) 0.3899(3)
Li1_2 Li 1.000000 0.500000 0.500000
O9 O 0.7011(4) 0.14658(14) 0.2776(3)
O11 O 0.7596(5) 0.46994(13) 0.2168(3)
O12 O 0.4854(5) 0.17152(14) 0.1316(3)
O14 O 0.8408(5) 0.44369(14) 0.4098(3)
O16 O 0.6684(6) 0.37341(19) 0.5860(5)
C15 C 0.5862(6) 0.35268(18) 0.1881(4)
C16 C 0.5513(6) 0.29244(18) 0.1670(4)
H11 H 0.457485 0.281428 0.111507
C17 C 0.7799(6) 0.43258(18) 0.3033(4)
C18 C 0.7283(6) 0.36903(18) 0.2724(4)
C19 C 0.3919(6) 0.43708(19) 0.2042(4)
H12 H 0.424312 0.435941 0.287954
C20 C 0.6542(6) 0.24842(18) 0.2276(4)
C21 C 0.6101(6) 0.18347(18) 0.2096(4)
C22 C 0.2310(6) 0.47932(19) 0.0268(4)
C23 C 0.4633(6) 0.39840(17) 0.1321(4)
C24 C 0.4090(6) 0.40113(18) 0.0077(4)
C25 C 0.2713(6) 0.47786(19) 0.1512(4)
C26 C 0.7946(6) 0.26503(19) 0.3103(4)
H15 H 0.864412 0.235990 0.350903
C27 C 0.8306(6) 0.3244(2) 0.3323(4)
H16 H 0.924704 0.334960 0.387978
C28 C 0.1802(6) 0.5189(2) 0.2242(4)
Cu7 Cu 0.69334(8) 0.05793(3) 0.27847(6)
Cu12 Cu 0.38409(10) 0.09176(3) 0.09800(7)
O18 O 0.7989(4) 0.64658(14) 0.2224(3)
O19 O 0.9854(5) 0.32848(14) 0.6316(3)
H13 H 0.155086 0.507735 0.990755
H14 H 0.452014 0.374006 0.958772
O13 O 0.4300(5) 0.05134(16) 0.3325(3)
O15 O 0.2786(5) 0.01739(16) 0.1623(3)
H13_2 H 0.344914 0.007735 0.509245
C28_2 C 0.3198(6) 0.0189(2) 0.2758(4)
N2 N 0.2033(5) 0.94134(15) 0.5451(3)
H11_2 H 0.042515 0.781428 0.388493
C19_2 C 0.1081(6) 0.93708(19) 0.2958(4)
H12_2 H 0.075688 0.935941 0.212046
C22_2 C 0.2690(6) 0.97932(19) 0.4732(4)
C23_2 C 0.0367(6) 0.89840(17) 0.3679(4)
C24_2 C 0.0910(6) 0.90113(18) 0.4923(4)
H14_2 H 0.047986 0.874006 0.541228
C25_2 C 0.2287(6) 0.97786(19) 0.3488(4)
O2_2 O 0.6053(4) 0.05886(13) 0.1101(3)
O8_2 O 0.1684(6) 0.12659(19) 0.0860(5)
Li1_3 Li 0.500000 0.000000 0.000000
N3 N 0.7967(5) 0.05866(15) 0.4549(3)
O3_2 O 0.2596(5) 0.03006(13) 0.7168(3)
O6_2 O 0.3408(5) 0.05631(14) 0.9098(3)
C1_2 C 0.0862(6) 0.14732(18) 0.6881(4)
C2_2 C 0.0513(6) 0.20756(18) 0.6670(4)
C3_2 C 0.2799(6) 0.06742(18) 0.8033(4)
C4_2 C 0.2283(6) 0.13097(18) 0.7724(4)
C6_2 C 0.1542(6) 0.25158(18) 0.7276(4)
C7_2 C 0.1101(6) 0.31653(18) 0.7096(4)
C12_2 C 0.2946(6) 0.23497(19) 0.8103(4)
H7_2 H 0.364412 0.264010 0.850903
C13_2 C 0.3306(6) 0.1756(2) 0.8323(4)
H8_2 H 0.424704 0.165040 0.887978
Li1_4 Li 0.500000 0.000000 1.000000
Li1_5 Li 0.500000 1.000000 0.000000
O11_2 O 0.7404(5) 0.96994(13) 0.2832(3)
O14_2 O 0.6592(5) 0.94369(14) 0.0902(3)
C15_2 C 0.9138(6) 0.85268(18) 0.3119(4)
C16_2 C 0.9487(6) 0.79244(18) 0.3330(4)
C17_2 C 0.7201(6) 0.93258(18) 0.1967(4)
C18_2 C 0.7717(6) 0.86903(18) 0.2276(4)
C20_2 C 0.8458(6) 0.74842(18) 0.2724(4)
C21_2 C 0.8899(6) 0.68347(18) 0.2904(4)
C26_2 C 0.7054(6) 0.76503(19) 0.1897(4)
H15_2 H 0.635588 0.735990 0.149097
C27_2 C 0.6694(6) 0.8244(2) 0.1677(4)
H16_2 H 0.575296 0.834960 0.112022
Li1_6 Li 0.500000 1.000000 1.000000
O10_2 O 0.3947(4) 0.94114(13) 0.8899(3)
O16_2 O 0.8316(6) 0.87341(19) 0.9140(5)
O21 O 0.5700(5) 0.94866(16) 0.6675(3)
O23 O 0.7214(5) 0.98261(16) 0.8377(3)
H3_2 H 0.957485 0.218572 0.611507
C5_2 C 0.8919(6) 0.06292(19) 0.7042(4)
H4_2 H 0.924312 0.064059 0.787954
C8_2 C 0.7310(6) 0.02068(19) 0.5268(4)
C9_2 C 0.9633(6) 0.10160(17) 0.6321(4)
C10_2 C 0.9090(6) 0.09887(18) 0.5077(4)
H6_2 H 0.952014 0.125994 0.458772
C11_2 C 0.7713(6) 0.02214(19) 0.6512(4)
H5_2 H 0.655086 0.992265 0.490755
C14_2 C 0.6802(6) 0.9811(2) 0.7242(4)
loop_
_geom_bond_atom_site_label_1
_geom_bond_atom_site_label_2
_geom_bond_site_symmetry_1
_geom_bond_site_symmetry_2
Cu6 N1 1_555 1_555
O1 C7 1_555 1_555
O3 C3 1_555 1_555
O4 C7 1_555 1_555
O5 C14 1_555 1_555
O6 Cu2 1_555 1_555
O7 C14 1_555 1_555
O8 Cu2 1_555 1_555
C1 C2 1_555 1_555
C2 H3 1_555 1_555
C3 O6 1_555 1_555
C4 C1 1_555 1_555
C5 H4 1_555 1_555
C6 C2 1_555 1_555
C7 C6 1_555 1_555
C9 C1 1_555 1_555
C11 C5 1_555 1_555
C12 C6 1_555 1_555
H7 C12 1_555 1_555
C13 C4 1_555 1_555
H8 C13 1_555 1_555
C14 C11 1_555 1_555
Li1 O6 1_555 1_555
Cu9 O3 1_555 1_555
O10 Li1 1_555 1_555
Cu10 O1 1_555 1_555
Cu13 O5 1_555 1_555
Cu14 O4 1_555 1_555
O17 Cu9 1_555 1_555
O20 Cu2 1_555 1_555
O24 Cu2 1_555 1_555
N4 Cu9 1_555 1_555
Cu2 O22 1_555 1_555
O7 Cu13 1_555 1_555
C3 C4 1_555 1_555
C5 C9 1_555 1_555
C8 C11 1_555 1_555
C9 C10 1_555 1_555
C12 C13 1_555 1_555
Cu9 O10 1_555 1_555
Cu6 O2 1_555 1_555
O2 Li1_2 1_555 1_555
O9 C21 1_555 1_555
O11 Cu6 1_555 1_555
O12 C21 1_555 1_555
O22 C28 1_555 1_555
O14 Li1_2 1_555 1_555
O24 C28 1_555 1_555
O16 Cu13 1_555 1_555
C15 C16 1_555 1_555
C16 H11 1_555 1_555
C17 O11 1_555 1_555
C18 C15 1_555 1_555
C19 H12 1_555 1_555
C20 C16 1_555 1_555
C21 C20 1_555 1_555
C23 C15 1_555 1_555
C25 C19 1_555 1_555
C26 C20 1_555 1_555
H15 C26 1_555 1_555
C27 C18 1_555 1_555
H16 C27 1_555 1_555
C28 C25 1_555 1_555
Cu7 O9 1_555 1_555
Cu12 O12 1_555 1_555
O18 Cu6 1_555 1_555
O19 Cu13 1_555 1_555
Cu13 O14 1_555 1_555
O14 C17 1_555 1_555
C17 C18 1_555 1_555
C19 C23 1_555 1_555
C22 C25 1_555 1_555
C23 C24 1_555 1_555
C26 C27 1_555 1_555
O13 C28_2 1_555 1_555
O15 C28_2 1_555 1_555
Cu7 O13 1_555 1_555
Cu12 O13 1_555 1_555
O15 Cu12 1_555 1_555
N2 C22_2 1_555 1_555
C19_2 H12_2 1_555 1_555
C24_2 N2 1_555 1_555
H14_2 C24_2 1_555 1_555
C25_2 C19_2 1_555 1_555
Cu10 N2 1_555 1_555
C19_2 C23_2 1_555 1_555
C22_2 C25_2 1_555 1_555
C23_2 C24_2 1_555 1_555
Cu7 O2_2 1_555 1_555
Cu12 O2_2 1_555 1_555
O2_2 Li1_3 1_555 1_555
O8_2 Cu12 1_555 1_555
N3 Cu7 1_555 1_555
O17 C7_2 1_555 1_555
O3_2 C3_2 1_555 1_555
C1_2 C2_2 1_555 1_555
C3_2 O6_2 1_555 1_555
C4_2 C1_2 1_555 1_555
C6_2 C2_2 1_555 1_555
C7_2 C6_2 1_555 1_555
C12_2 C6_2 1_555 1_555
H7_2 C12_2 1_555 1_555
C13_2 C4_2 1_555 1_555
H8_2 C13_2 1_555 1_555
Li1_4 O6_2 1_555 1_555
C3_2 C4_2 1_555 1_555
C12_2 C13_2 1_555 1_555
O18 C21_2 1_555 1_555
O14_2 Li1_5 1_555 1_555
C15_2 C16_2 1_555 1_555
C17_2 O11_2 1_555 1_555
C18_2 C15_2 1_555 1_555
C20_2 C16_2 1_555 1_555
C21_2 C20_2 1_555 1_555
C26_2 C20_2 1_555 1_555
H15_2 C26_2 1_555 1_555
C27_2 C18_2 1_555 1_555
H16_2 C27_2 1_555 1_555
O14_2 C17_2 1_555 1_555
C17_2 C18_2 1_555 1_555
C26_2 C27_2 1_555 1_555
Cu14 O10_2 1_555 1_555
O10_2 Li1_6 1_555 1_555
O16_2 Cu14 1_555 1_555
O21 Cu10 1_555 1_555
O23 Cu14 1_555 1_555
Cu10 O10_2 1_555 1_555
Cu14 O21 1_555 1_555
N3 C8_2 1_555 1_555
C5_2 H4_2 1_555 1_555
C10_2 N3 1_555 1_555
H6_2 C10_2 1_555 1_555
C11_2 C5_2 1_555 1_555
C5_2 C9_2 1_555 1_555
C8_2 C11_2 1_555 1_555
C9_2 C10_2 1_555 1_555
O21 C14_2 1_555 1_555
O23 C14_2 1_555 1_555

#END
