
###############################################################################
#
# This file contains modified crystal structure data generated from the
# MOF subset of the Cambridge Structural Database (CSD) v542 
# hosted by the Cambridge Crystallographic Data Centre (CCDC).
#
# This work is licensed under the Creative Commons
# Attribution-NonCommercial-ShareAlike 4.0 International License.
# To view a copy of this license, visit
# http://creativecommons.org/licenses/by-nc-sa/4.0/
# or send a letter to
# Creative Commons, PO Box 1866, Mountain View, CA 94042, USA.
#
# CIF created using the CSD Python API on 22 February 2021
# The structure has been converted into the P1 space group
# The structure has a 3D framework
# The original CSD entry XUFSEZ is in the orthorhombic crystal system
# The framework has been calculated to contain at least 10.0% void space
# The void calculation uses a probe of radius 1.32A, grid spacing 0.4
#
###############################################################################

data_XUFSEZ
_chemical_formula_moiety         '(C64 H64 Co4 N16 O14 S4)n'
_symmetry_cell_setting           triclinic
_symmetry_space_group_name_H-M   'P 1'
_symmetry_Int_Tables_number      1
_space_group_name_Hall           'P 1'
loop_
_symmetry_equiv_pos_site_id
_symmetry_equiv_pos_as_xyz
1 x,y,z
_cell_length_a                   15.859(4)
_cell_length_b                   15.932(2)
_cell_length_c                   8.963(3)
_cell_angle_alpha                90
_cell_angle_beta                 90
_cell_angle_gamma                90
_cell_volume                     2264.64
loop_
_atom_site_label
_atom_site_type_symbol
_atom_site_fract_x
_atom_site_fract_y
_atom_site_fract_z
H9 H 0.565758 0.553521 0.038344
C12 C 0.4202(4) 0.5964(4) 0.3245(7)
H10 H 0.364896 0.602259 0.291357
C13 C 0.5354(4) 0.6179(4) 0.4345(7)
H11 H 0.577369 0.640813 0.494372
C14 C 0.5435(5) 0.5479(4) 0.3490(8)
H12 H 0.591546 0.514992 0.338750
C15 C 0.4490(6) 0.4671(5) 0.1823(8)
H13 H 0.485835 0.419748 0.201776
H14 H 0.391584 0.449414 0.201884
C16 C 0.4567(6) 0.4914(7) 0.0230(9)
H15 H 0.422672 0.540993 0.005366
N3 N 0.4575(3) 0.6486(3) 0.4189(5)
N4 N 0.4708(4) 0.5357(3) 0.2839(6)
Co3 Co 0.41309(6) 0.750000 0.51422(9)
S1 S 0.12377(12) 0.750000 0.6338(2)
C2 C 0.0241(5) 0.750000 0.5705(9)
C3 C 0.0207(6) 0.750000 0.4225(9)
C4 C 0.1013(6) 0.750000 0.3582(10)
H2 H 0.111394 0.750000 0.255990
C5 C 0.1608(6) 0.750000 0.4603(8)
C6 C 0.2509(5) 0.750000 0.4380(9)
O3 O 0.2809(5) 0.750000 0.3116(7)
O4 O 0.2954(4) 0.750000 0.5512(7)
Co1 Co 0.91309(6) 0.750000 0.98578(9)
C1 C 0.9561(5) 0.750000 0.6771(9)
H1 H 0.970834 0.750000 0.367986
O1 O 0.9786(4) 0.750000 0.8087(6)
O2 O 0.8858(5) 0.750000 0.6369(9)
O5 O 0.7954(4) 0.750000 0.9488(7)
S1_2 S 0.62377(12) 0.750000 0.8662(2)
C1_2 C 0.4561(5) 0.750000 0.8229(9)
C2_2 C 0.5241(5) 0.750000 0.9295(9)
C7 C 0.4202(4) 0.9036(4) 0.3245(7)
H3 H 0.364896 0.897741 0.291357
C8 C 0.5354(4) 0.8821(4) 0.4345(7)
H4 H 0.577369 0.859187 0.494372
C9 C 0.5435(5) 0.9521(4) 0.3490(8)
H5 H 0.591546 0.985008 0.338750
H8 H 0.422672 0.959007 0.005366
N1 N 0.4575(3) 0.8514(3) 0.4189(5)
N2 N 0.4708(4) 0.9643(3) 0.2839(6)
O1_2 O 0.4786(4) 0.750000 0.6913(6)
O2_2 O 0.3858(5) 0.750000 0.8631(9)
H16 H 0.565758 0.946479 0.038344
Co1_2 Co 0.58691(6) 0.250000 0.48578(9)
S1_3 S 0.37623(12) 0.250000 0.1338(2)
C1_3 C 0.5439(5) 0.250000 0.1771(9)
C2_3 C 0.4759(5) 0.250000 0.0705(9)
C7_2 C 0.5798(4) 0.4036(4) 0.6755(7)
H3_2 H 0.635104 0.397741 0.708643
C8_2 C 0.4646(4) 0.3821(4) 0.5655(7)
H4_2 H 0.422631 0.359187 0.505628
C9_2 C 0.4565(5) 0.4521(4) 0.6510(8)
H5_2 H 0.408454 0.485008 0.661250
C10 C 0.5510(6) 0.5329(5) 0.8177(8)
H6 H 0.514165 0.580252 0.798224
H7 H 0.608416 0.550586 0.798116
C11 C 0.5433(6) 0.5086(7) 0.9770(9)
H8_2 H 0.577328 0.459007 0.994634
N1_2 N 0.5425(3) 0.3514(3) 0.5811(5)
N2_2 N 0.5292(4) 0.4643(3) 0.7161(6)
O1_3 O 0.5214(4) 0.250000 0.3087(6)
O2_3 O 0.6142(5) 0.250000 0.1369(9)
O4_2 O 0.2046(4) 0.250000 0.0512(7)
H16_2 H 0.434242 0.446479 0.961656
Co2 Co 0.08691(6) 0.250000 0.01422(9)
N5 N 0.5425(3) 0.1486(3) 0.5811(5)
O5_2 O 0.7046(4) 0.250000 0.4488(7)
C1_4 C 0.0439(5) 0.250000 0.3229(9)
H1_2 H 0.029166 0.250000 0.632014
O1_4 O 0.0214(4) 0.250000 0.1913(6)
O2_4 O 0.1142(5) 0.250000 0.3631(9)
S1_4 S 0.87623(12) 0.250000 0.3662(2)
C2_4 C 0.9759(5) 0.250000 0.4295(9)
C3_2 C 0.9793(6) 0.250000 0.5775(9)
C4_2 C 0.8987(6) 0.250000 0.6418(10)
H2_2 H 0.888606 0.250000 0.744010
C5_2 C 0.8392(6) 0.250000 0.5397(8)
C6_2 C 0.7491(5) 0.250000 0.5620(9)
O3_2 O 0.7191(5) 0.250000 0.6884(7)
H9_2 H 0.434242 0.053521 0.961656
C12_2 C 0.5798(4) 0.0964(4) 0.6755(7)
H10_2 H 0.635104 0.102259 0.708643
C13_2 C 0.4646(4) 0.1179(4) 0.5655(7)
H11_2 H 0.422631 0.140813 0.505628
C14_2 C 0.4565(5) 0.0479(4) 0.6510(8)
H12_2 H 0.408454 0.014992 0.661250
H15_2 H 0.577328 0.040993 0.994634
N4_2 N 0.5292(4) 0.0357(3) 0.7161(6)
C3_3 C 0.4793(6) 0.250000 0.9225(9)
H1_3 H 0.529166 0.250000 0.867986
C4_3 C 0.3987(6) 0.250000 0.8582(10)
H2_3 H 0.388606 0.250000 0.755990
C5_3 C 0.3392(6) 0.250000 0.9603(8)
C6_3 C 0.2491(5) 0.250000 0.9380(9)
O3_3 O 0.2191(5) 0.250000 0.8116(7)
C8_3 C 0.0354(4) 0.6179(4) 0.0655(7)
H4_3 H 0.077369 0.640813 0.005628
C9_3 C 0.0435(5) 0.5479(4) 0.1510(8)
H5_3 H 0.091546 0.514992 0.161250
C12_3 C 0.0798(4) 0.4036(4) 0.8245(7)
H10_3 H 0.135104 0.397741 0.791357
C15_2 C 0.0510(6) 0.5329(5) 0.6823(8)
H13_2 H 0.014165 0.580252 0.701776
H14_2 H 0.108416 0.550586 0.701884
C16_2 C 0.0433(6) 0.5086(7) 0.5230(9)
H15_3 H 0.077328 0.459007 0.505366
H16_3 H 0.065758 0.553521 0.461656
N3_2 N 0.0425(3) 0.3514(3) 0.9189(5)
N4_3 N 0.0292(4) 0.4643(3) 0.7839(6)
C7_3 C 0.0798(4) 0.0964(4) 0.8245(7)
H3_3 H 0.135104 0.102259 0.791357
H8_3 H 0.077328 0.040993 0.505366
N1_3 N 0.0425(3) 0.1486(3) 0.9189(5)
N2_3 N 0.0292(4) 0.0357(3) 0.7839(6)
C7_4 C 0.9202(4) 0.5964(4) 0.1755(7)
H3_4 H 0.864896 0.602259 0.208643
C10_2 C 0.9490(6) 0.4671(5) 0.3177(8)
H6_2 H 0.985835 0.419748 0.298224
H7_2 H 0.891584 0.449414 0.298116
C11_2 C 0.9567(6) 0.4914(7) 0.4770(9)
H8_4 H 0.922672 0.540993 0.494634
H9_3 H 0.934242 0.446479 0.538344
N1_4 N 0.9575(3) 0.6486(3) 0.0811(5)
N2_4 N 0.9708(4) 0.5357(3) 0.2161(6)
C13_3 C 0.9646(4) 0.3821(4) 0.9345(7)
H11_3 H 0.922631 0.359187 0.994372
C14_3 C 0.9565(5) 0.4521(4) 0.8490(8)
H12_3 H 0.908454 0.485008 0.838750
N5_2 N 0.9575(3) 0.8514(3) 0.0811(5)
C12_4 C 0.9202(4) 0.9036(4) 0.1755(7)
H10_4 H 0.864896 0.897741 0.208643
H15_4 H 0.922672 0.959007 0.494634
N4_4 N 0.9708(4) 0.9643(3) 0.2161(6)
C10_3 C 0.0510(6) 0.9671(5) 0.6823(8)
H6_3 H 0.014165 0.919748 0.701776
H7_3 H 0.108416 0.949414 0.701884
C11_3 C 0.0433(6) 0.9914(7) 0.5230(9)
H9_4 H 0.065758 0.946479 0.461656
C13_4 C 0.0354(4) 0.8821(4) 0.0655(7)
H11_4 H 0.077369 0.859187 0.005628
C14_4 C 0.0435(5) 0.9521(4) 0.1510(8)
H12_4 H 0.091546 0.985008 0.161250
C8_4 C 0.9646(4) 0.1179(4) 0.9345(7)
H4_4 H 0.922631 0.140813 0.994372
C9_4 C 0.9565(5) 0.0479(4) 0.8490(8)
H5_4 H 0.908454 0.014992 0.838750
C15_3 C 0.9490(6) 0.0329(5) 0.3177(8)
H13_3 H 0.985835 0.080252 0.298224
H14_3 H 0.891584 0.050586 0.298116
C16_3 C 0.9567(6) 0.0086(7) 0.4770(9)
H16_4 H 0.934242 0.053521 0.538344
C10_4 C 0.4490(6) 0.0329(5) 0.1823(8)
H6_4 H 0.485835 0.080252 0.201776
H7_4 H 0.391584 0.050586 0.201884
C11_4 C 0.4567(6) 0.0086(7) 0.0230(9)
C3_4 C 0.5207(6) 0.750000 0.0775(9)
H1_4 H 0.470834 0.750000 0.132014
C4_4 C 0.6013(6) 0.750000 0.1418(10)
H2_4 H 0.611394 0.750000 0.244010
C5_4 C 0.6608(6) 0.750000 0.0397(8)
C6_4 C 0.7509(5) 0.750000 0.0620(9)
O3_4 O 0.7809(5) 0.750000 0.1884(7)
C15_4 C 0.5510(6) 0.9671(5) 0.8177(8)
H13_4 H 0.514165 0.919748 0.798224
H14_4 H 0.608416 0.949414 0.798116
C16_4 C 0.5433(6) 0.9914(7) 0.9770(9)
loop_
_geom_bond_atom_site_label_1
_geom_bond_atom_site_label_2
_geom_bond_site_symmetry_1
_geom_bond_site_symmetry_2
C12 H10 1_555 1_555
C13 H11 1_555 1_555
C14 C13 1_555 1_555
H12 C14 1_555 1_555
C15 H13 1_555 1_555
H14 C15 1_555 1_555
H15 C16 1_555 1_555
N3 C12 1_555 1_555
N4 C12 1_555 1_555
Co3 N3 1_555 1_555
C13 N3 1_555 1_555
C14 N4 1_555 1_555
C15 C16 1_555 1_555
C15 N4 1_555 1_555
S1 C2 1_555 1_555
C2 C3 1_555 1_555
C4 C3 1_555 1_555
H2 C4 1_555 1_555
C5 S1 1_555 1_555
C6 C5 1_555 1_555
O3 C6 1_555 1_555
O4 C6 1_555 1_555
Co3 O4 1_555 1_555
C4 C5 1_555 1_555
O1 Co1 1_555 1_555
O2 C1 1_555 1_555
O5 Co1 1_555 1_555
C1 O1 1_555 1_555
Co3 N1 1_555 1_555
S1_2 C2_2 1_555 1_555
C1_2 C2_2 1_555 1_555
C7 H3 1_555 1_555
C8 H4 1_555 1_555
C9 C8 1_555 1_555
H5 C9 1_555 1_555
N1 C7 1_555 1_555
N2 C7 1_555 1_555
O1_2 Co3 1_555 1_555
O2_2 C1_2 1_555 1_555
C1_2 O1_2 1_555 1_555
C8 N1 1_555 1_555
C9 N2 1_555 1_555
Co1_2 N1_2 1_555 1_555
S1_3 C2_3 1_555 1_555
C1_3 C2_3 1_555 1_555
C7_2 H3_2 1_555 1_555
C8_2 H4_2 1_555 1_555
C9_2 C8_2 1_555 1_555
H5_2 C9_2 1_555 1_555
C10 H6 1_555 1_555
H7 C10 1_555 1_555
C11 C10 1_555 1_555
H8_2 C11 1_555 1_555
N1_2 C7_2 1_555 1_555
N2_2 C7_2 1_555 1_555
O1_3 Co1_2 1_555 1_555
O2_3 C1_3 1_555 1_555
Co2 O4_2 1_555 1_555
N5 Co1_2 1_555 1_555
O5_2 Co1_2 1_555 1_555
C1_3 O1_3 1_555 1_555
C8_2 N1_2 1_555 1_555
C9_2 N2_2 1_555 1_555
C10 N2_2 1_555 1_555
O1_4 Co2 1_555 1_555
O2_4 C1_4 1_555 1_555
C1_4 O1_4 1_555 1_555
S1_4 C2_4 1_555 1_555
C2_4 C3_2 1_555 1_555
C4_2 C3_2 1_555 1_555
H2_2 C4_2 1_555 1_555
C5_2 S1_4 1_555 1_555
C6_2 C5_2 1_555 1_555
O3_2 C6_2 1_555 1_555
O5_2 C6_2 1_555 1_555
C4_2 C5_2 1_555 1_555
C12_2 H10_2 1_555 1_555
C13_2 H11_2 1_555 1_555
C14_2 C13_2 1_555 1_555
H12_2 C14_2 1_555 1_555
N5 C12_2 1_555 1_555
N4_2 C12_2 1_555 1_555
C13_2 N5 1_555 1_555
C14_2 N4_2 1_555 1_555
C3_3 H1_3 1_555 1_555
C4_3 C3_3 1_555 1_555
H2_3 C4_3 1_555 1_555
C6_3 C5_3 1_555 1_555
O3_3 C6_3 1_555 1_555
C4_3 C5_3 1_555 1_555
C8_3 H4_3 1_555 1_555
C9_3 C8_3 1_555 1_555
H5_3 C9_3 1_555 1_555
C12_3 H10_3 1_555 1_555
C15_2 H13_2 1_555 1_555
H14_2 C15_2 1_555 1_555
H15_3 C16_2 1_555 1_555
H16_3 C16_2 1_555 1_555
N3_2 C12_3 1_555 1_555
N4_3 C12_3 1_555 1_555
C15_2 C16_2 1_555 1_555
C15_2 N4_3 1_555 1_555
C7_3 H3_3 1_555 1_555
N1_3 C7_3 1_555 1_555
N2_3 C7_3 1_555 1_555
C7_4 H3_4 1_555 1_555
C10_2 H6_2 1_555 1_555
H7_2 C10_2 1_555 1_555
C11_2 C10_2 1_555 1_555
H8_4 C11_2 1_555 1_555
H9_3 C11_2 1_555 1_555
N1_4 C7_4 1_555 1_555
N2_4 C7_4 1_555 1_555
C13_3 H11_3 1_555 1_555
C14_3 C13_3 1_555 1_555
H12_3 C14_3 1_555 1_555
C10_2 N2_4 1_555 1_555
C12_4 H10_4 1_555 1_555
N5_2 C12_4 1_555 1_555
N4_4 C12_4 1_555 1_555
C10_3 H6_3 1_555 1_555
H7_3 C10_3 1_555 1_555
C11_3 C10_3 1_555 1_555
H9_4 C11_3 1_555 1_555
C13_4 H11_4 1_555 1_555
C14_4 C13_4 1_555 1_555
H12_4 C14_4 1_555 1_555
C8_4 H4_4 1_555 1_555
C9_4 C8_4 1_555 1_555
H5_4 C9_4 1_555 1_555
C15_3 H13_3 1_555 1_555
H14_3 C15_3 1_555 1_555
H16_4 C16_3 1_555 1_555
C15_3 C16_3 1_555 1_555
C10_4 H6_4 1_555 1_555
H7_4 C10_4 1_555 1_555
C11_4 C10_4 1_555 1_555
C3_4 H1_4 1_555 1_555
C4_4 C3_4 1_555 1_555
H2_4 C4_4 1_555 1_555
C6_4 C5_4 1_555 1_555
O3_4 C6_4 1_555 1_555
C4_4 C5_4 1_555 1_555
C15_4 H13_4 1_555 1_555
H14_4 C15_4 1_555 1_555
C15_4 C16_4 1_555 1_555

#END
