
###############################################################################
#
# This file contains modified crystal structure data generated from the
# MOF subset of the Cambridge Structural Database (CSD) v542 
# hosted by the Cambridge Crystallographic Data Centre (CCDC).
#
# This work is licensed under the Creative Commons
# Attribution-NonCommercial-ShareAlike 4.0 International License.
# To view a copy of this license, visit
# http://creativecommons.org/licenses/by-nc-sa/4.0/
# or send a letter to
# Creative Commons, PO Box 1866, Mountain View, CA 94042, USA.
#
# CIF created using the CSD Python API on 22 February 2021
# The structure has been converted into the P1 space group
# The structure has a 3D framework
# The original CSD entry YANMUY is in the monoclinic crystal system
# The framework has been calculated to contain at least 10.0% void space
# The void calculation uses a probe of radius 1.32A, grid spacing 0.4
#
###############################################################################

data_YANMUY
_chemical_formula_moiety         '(C76 H68 N12 O44 Zn6)n'
_symmetry_cell_setting           triclinic
_symmetry_space_group_name_H-M   'P 1'
_symmetry_Int_Tables_number      1
_space_group_name_Hall           'P 1'
loop_
_symmetry_equiv_pos_site_id
_symmetry_equiv_pos_as_xyz
1 x,y,z
_cell_length_a                   14.0230(14)
_cell_length_b                   13.147(2)
_cell_length_c                   21.957(3)
_cell_angle_alpha                90
_cell_angle_beta                 96.735(9)
_cell_angle_gamma                90
_cell_volume                     4020.07
loop_
_atom_site_label
_atom_site_type_symbol
_atom_site_fract_x
_atom_site_fract_y
_atom_site_fract_z
O12 O 0.0430(5) 0.1062(7) 0.2004(3)
O16 O 0.1448(6) 0.1217(8) 0.2853(4)
Zn2 Zn 0.42729(9) 0.30563(12) 0.65830(6)
O1 O 0.4570(5) 0.6062(7) 0.2996(3)
O2 O 0.1217(5) 0.7802(7) 0.7553(3)
O3 O 0.3492(5) 0.4353(7) 0.6416(3)
O4 O 0.0642(5) 0.8744(7) 0.6750(3)
O5 O 0.0481(5) 0.9174(7) 0.3187(3)
O6 O 0.3552(6) 0.6217(8) 0.2147(4)
O7 O 0.3690(5) 0.5276(7) 0.7271(3)
O8 O 0.4716(5) 0.3201(8) 0.5708(4)
O9 O 0.0948(6) 0.8830(8) 0.2262(4)
O10 O 0.5182(6) 0.1735(7) 0.6747(5)
N1 N 0.1816(7) 0.7077(8) 0.4943(5)
N2 N 0.2423(7) 0.6707(9) 0.4642(4)
C1 C 0.3322(8) 0.5103(10) 0.6724(5)
C2 C 0.3001(7) 0.6807(10) 0.3055(5)
C3 C 0.2180(7) 0.6539(9) 0.6814(5)
H1 H 0.230055 0.645998 0.723720
C4 C 0.2605(8) 0.5899(10) 0.6441(5)
C5 C 0.3041(8) 0.6528(10) 0.3685(5)
H2 H 0.349963 0.607887 0.387004
C6 C 0.2486(7) 0.6024(10) 0.5820(5)
H3 H 0.277182 0.557966 0.556611
C7 C 0.1123(9) 0.8011(11) 0.7002(5)
C8 C 0.1669(8) 0.7642(11) 0.3732(6)
H4 H 0.121231 0.792871 0.395531
C9 C 0.3743(8) 0.6351(10) 0.2689(6)
C10 C 0.2320(8) 0.6991(10) 0.4020(5)
C11 C 0.0968(8) 0.8671(11) 0.2809(6)
C12 C 0.1586(8) 0.7285(11) 0.6582(5)
C13 C 0.1653(8) 0.7897(11) 0.3127(5)
C14 C 0.1932(8) 0.6825(11) 0.5580(6)
C15 C 0.2330(8) 0.7429(10) 0.2789(5)
H5 H 0.230581 0.755823 0.237102
C16 C 0.1467(8) 0.7449(12) 0.5944(6)
H6 H 0.107740 0.797290 0.577329
C17 C 0.4187(10) 0.3452(13) 0.5277(5)
H7 H 0.355974 0.354062 0.536547
N3 N 0.4296(10) 0.3650(13) 0.4656(6)
C18 C 0.5290(12) 0.346(2) 0.4504(10)
H8 H 0.573470 0.388150 0.475430
H9 H 0.532249 0.361068 0.407914
H10 H 0.545355 0.275574 0.457966
C19 C 0.3470(15) 0.377(2) 0.4136(9)
H11 H 0.286747 0.374522 0.430213
H12 H 0.349869 0.323647 0.384278
H13 H 0.352927 0.441829 0.393800
O11 O 0.2994(7) 0.2139(9) 0.6192(4)
Zn3 Zn 0.51039(9) 0.52841(11) 0.23046(6)
Zn4 Zn 0.01039(9) 0.97159(11) 0.73046(6)
Zn5 Zn 0.48961(9) 0.47159(11) 0.76954(6)
Zn6 Zn 0.07271(9) 0.80563(12) 0.84170(6)
Zn7 Zn 0.57271(9) 0.69437(12) 0.34170(6)
O13 O 0.5430(5) 0.3938(7) 0.7004(3)
O14 O 0.3783(5) 0.2802(7) 0.7447(3)
Zn1 Zn 0.98961(9) 0.02841(11) 0.26954(6)
O15 O 0.9358(5) 0.1256(7) 0.3250(3)
O17 O 0.8690(5) 0.9724(7) 0.2271(3)
O5_2 O 0.4519(5) 0.4174(7) 0.1813(3)
O9_2 O 0.4052(6) 0.3830(8) 0.2738(4)
N1_2 N 0.3184(7) 0.2077(8) 0.0057(5)
N2_2 N 0.2577(7) 0.1707(9) 0.0358(4)
C2_2 C 0.1999(7) 0.1807(10) 0.1945(5)
C5_2 C 0.1959(8) 0.1528(10) 0.1315(5)
H2_2 H 0.150037 0.107887 0.112996
C8_2 C 0.3331(8) 0.2642(11) 0.1268(6)
H4_2 H 0.378769 0.292871 0.104469
C9_2 C 0.1257(8) 0.1351(10) 0.2311(6)
C10_2 C 0.2680(8) 0.1991(10) 0.0980(5)
C11_2 C 0.4032(8) 0.3671(11) 0.2191(6)
C13_2 C 0.3347(8) 0.2897(11) 0.1873(5)
C15_2 C 0.2670(8) 0.2429(10) 0.2211(5)
H5_2 H 0.269419 0.255823 0.262898
O15_2 O 0.5642(5) 0.6256(7) 0.1750(3)
O17_2 O 0.6310(5) 0.4724(7) 0.2729(3)
O4_2 O 0.4358(5) 0.3744(7) 0.8250(3)
O7_2 O 0.1310(5) 0.0276(7) 0.7729(3)
C1_2 C 0.1678(8) 0.0103(10) 0.8276(5)
C3_2 C 0.2820(7) 0.1539(9) 0.8186(5)
H1_2 H 0.269945 0.145998 0.776280
C4_2 C 0.2395(8) 0.0899(10) 0.8559(5)
C6_2 C 0.2514(7) 0.1024(10) 0.9180(5)
H3_2 H 0.222818 0.057966 0.943389
C7_2 C 0.3877(9) 0.3011(11) 0.7998(5)
C12_2 C 0.3414(8) 0.2285(11) 0.8418(5)
C14_2 C 0.3068(8) 0.1825(11) 0.9420(6)
C16_2 C 0.3533(8) 0.2449(12) 0.9056(6)
H6_2 H 0.392260 0.297290 0.922671
O3_2 O 0.1508(5) 0.9353(7) 0.8584(3)
O8_2 O 0.0284(5) 0.8201(8) 0.9292(4)
C17_2 C 0.0813(10) 0.8452(13) 0.9723(5)
H7_2 H 0.144026 0.854062 0.963453
O11_2 O 0.2006(7) 0.7139(9) 0.8808(4)
Zn7_2 Zn 0.92729(9) 0.19437(12) 0.15830(6)
O10_2 O 0.9818(6) 0.6735(7) 0.8253(5)
O13_2 O 0.9570(5) 0.8938(7) 0.7996(3)
O2_2 O 0.8783(5) 0.2198(7) 0.2447(3)
O3_3 O 0.6508(5) 0.5647(7) 0.3584(3)
O5_3 O 0.9519(5) 0.0826(7) 0.6813(3)
O6_2 O 0.6448(6) 0.3783(8) 0.7853(4)
O8_3 O 0.5284(5) 0.6799(8) 0.4292(4)
O9_3 O 0.9052(6) 0.1170(8) 0.7738(4)
O10_3 O 0.4818(6) 0.8265(7) 0.3253(5)
N1_3 N 0.8184(7) 0.2923(8) 0.5057(5)
N2_3 N 0.7577(7) 0.3293(9) 0.5358(4)
C1_3 C 0.6678(8) 0.4897(10) 0.3276(5)
C2_3 C 0.6999(7) 0.3193(10) 0.6945(5)
C3_3 C 0.7820(7) 0.3461(9) 0.3186(5)
H1_3 H 0.769945 0.354002 0.276280
C4_3 C 0.7395(8) 0.4101(10) 0.3559(5)
C5_3 C 0.6959(8) 0.3472(10) 0.6315(5)
H2_3 H 0.650037 0.392113 0.612996
C6_3 C 0.7514(7) 0.3976(10) 0.4180(5)
H3_3 H 0.722818 0.442034 0.443389
C7_3 C 0.8877(9) 0.1989(11) 0.2998(5)
C8_3 C 0.8331(8) 0.2358(11) 0.6268(6)
H4_3 H 0.878769 0.207129 0.604469
C9_3 C 0.6257(8) 0.3649(10) 0.7311(6)
C10_3 C 0.7680(8) 0.3009(10) 0.5980(5)
C11_3 C 0.9032(8) 0.1329(11) 0.7191(6)
C12_3 C 0.8414(8) 0.2715(11) 0.3418(5)
C13_3 C 0.8347(8) 0.2103(11) 0.6873(5)
C14_3 C 0.8068(8) 0.3175(11) 0.4420(6)
C15_3 C 0.7670(8) 0.2571(10) 0.7211(5)
H5_3 H 0.769419 0.244177 0.762898
C16_3 C 0.8533(8) 0.2551(12) 0.4056(6)
H6_3 H 0.892260 0.202710 0.422671
C17_3 C 0.5813(10) 0.6548(13) 0.4723(5)
H7_3 H 0.644026 0.645938 0.463453
N3_2 N 0.5704(10) 0.6350(13) 0.5344(6)
C18_2 C 0.4710(12) 0.654(2) 0.5496(10)
H8_2 H 0.426530 0.611850 0.524570
H9_2 H 0.467751 0.638932 0.592086
H10_2 H 0.454645 0.724426 0.542034
C19_2 C 0.6530(15) 0.623(2) 0.5864(9)
H11_2 H 0.713253 0.625478 0.569787
H12_2 H 0.650131 0.676353 0.615722
H13_2 H 0.647073 0.558171 0.606200
O11_3 O 0.7006(7) 0.7861(9) 0.3808(4)
O14_2 O 0.6217(5) 0.7198(7) 0.2553(3)
O16_2 O 0.8552(6) 0.8783(8) 0.7147(4)
O10_4 O 0.0182(6) 0.3265(7) 0.1747(5)
O3_4 O 0.8492(5) 0.0647(7) 0.1416(3)
O8_4 O 0.9716(5) 0.1799(8) 0.0708(4)
C17_4 C 0.9187(10) 0.1548(13) 0.0277(5)
H7_4 H 0.855974 0.145938 0.036547
O11_4 O 0.7994(7) 0.2861(9) 0.1192(4)
C1_4 C 0.8322(8) 0.9897(10) 0.1724(5)
C3_4 C 0.7180(7) 0.8461(9) 0.1814(5)
H1_4 H 0.730055 0.854002 0.223720
C4_4 C 0.7605(8) 0.9101(10) 0.1441(5)
C6_4 C 0.7486(7) 0.8976(10) 0.0820(5)
H3_4 H 0.777182 0.942034 0.056611
C7_4 C 0.6123(9) 0.6989(11) 0.2002(5)
C12_4 C 0.6586(8) 0.7715(11) 0.1582(5)
C14_4 C 0.6932(8) 0.8175(11) 0.0580(6)
C16_4 C 0.6467(8) 0.7551(12) 0.0944(6)
H6_4 H 0.607740 0.702710 0.077329
O5_4 O 0.5481(5) 0.5826(7) 0.8187(3)
O9_4 O 0.5948(6) 0.6170(8) 0.7262(4)
N1_4 N 0.6816(7) 0.7923(8) 0.9943(5)
N2_4 N 0.7423(7) 0.8293(9) 0.9642(4)
C2_4 C 0.8001(7) 0.8193(10) 0.8055(5)
C5_4 C 0.8041(8) 0.8472(10) 0.8685(5)
H2_4 H 0.849963 0.892113 0.887004
C8_4 C 0.6669(8) 0.7358(11) 0.8732(6)
H4_4 H 0.621231 0.707129 0.895531
C9_4 C 0.8743(8) 0.8649(10) 0.7689(6)
C10_4 C 0.7320(8) 0.8009(10) 0.9020(5)
C11_4 C 0.5968(8) 0.6329(11) 0.7809(6)
C13_4 C 0.6653(8) 0.7103(11) 0.8127(5)
C15_4 C 0.7330(8) 0.7571(10) 0.7789(5)
H5_4 H 0.730581 0.744177 0.737102
N3_3 N 0.0704(10) 0.8650(13) 0.0344(6)
C19_3 C 0.1530(15) 0.877(2) 0.0864(9)
H11_3 H 0.213253 0.874522 0.069787
H12_3 H 0.150131 0.823647 0.115722
H13_3 H 0.147073 0.941829 0.106200
C18_3 C 0.9710(12) 0.846(2) 0.0496(10)
H8_3 H 0.926530 0.888150 0.024570
H9_3 H 0.967751 0.861068 0.092086
H10_3 H 0.954645 0.775574 0.042034
C18_4 C 0.0290(12) 0.154(2) 0.9504(10)
H8_4 H 0.073470 0.111850 0.975430
H9_4 H 0.032249 0.138932 0.907914
H10_4 H 0.045355 0.224426 0.957966
N3_4 N 0.9296(10) 0.1350(13) 0.9656(6)
C19_4 C 0.8470(15) 0.123(2) 0.9136(9)
H11_4 H 0.786747 0.125478 0.930213
H12_4 H 0.849869 0.176353 0.884278
H13_4 H 0.852927 0.058171 0.893800
loop_
_geom_bond_atom_site_label_1
_geom_bond_atom_site_label_2
_geom_bond_site_symmetry_1
_geom_bond_site_symmetry_2
Zn2 O3 1_555 1_555
O1 C9 1_555 1_555
O2 C7 1_555 1_555
O3 C1 1_555 1_555
O4 C7 1_555 1_555
O5 C11 1_555 1_555
O6 C9 1_555 1_555
O7 C1 1_555 1_555
O8 Zn2 1_555 1_555
O9 C11 1_555 1_555
O10 Zn2 1_555 1_555
N1 N2 1_555 1_555
N2 C10 1_555 1_555
C1 C4 1_555 1_555
C2 C5 1_555 1_555
C3 H1 1_555 1_555
C4 C3 1_555 1_555
C5 H2 1_555 1_555
C6 C4 1_555 1_555
H3 C6 1_555 1_555
C7 C12 1_555 1_555
C8 H4 1_555 1_555
C9 C2 1_555 1_555
C10 C5 1_555 1_555
C11 C13 1_555 1_555
C12 C3 1_555 1_555
C13 C8 1_555 1_555
C14 N1 1_555 1_555
C15 C2 1_555 1_555
H5 C15 1_555 1_555
C16 C12 1_555 1_555
H6 C16 1_555 1_555
C17 O8 1_555 1_555
H7 C17 1_555 1_555
N3 C17 1_555 1_555
C18 N3 1_555 1_555
H8 C18 1_555 1_555
H9 C18 1_555 1_555
H10 C18 1_555 1_555
C19 N3 1_555 1_555
H11 C19 1_555 1_555
H12 C19 1_555 1_555
H13 C19 1_555 1_555
O11 Zn2 1_555 1_555
Zn3 O1 1_555 1_555
Zn4 O4 1_555 1_555
Zn5 O7 1_555 1_555
Zn6 O2 1_555 1_555
Zn7 O1 1_555 1_555
O13 Zn2 1_555 1_555
O14 Zn2 1_555 1_555
O6 Zn3 1_555 1_555
C6 C14 1_555 1_555
C8 C10 1_555 1_555
C13 C15 1_555 1_555
C14 C16 1_555 1_555
Zn5 O13 1_555 1_555
O15 Zn1 1_555 1_555
Zn3 O5_2 1_555 1_555
O12 C9_2 1_555 1_555
O5_2 C11_2 1_555 1_555
O16 C9_2 1_555 1_555
O9_2 C11_2 1_555 1_555
N1_2 N2_2 1_555 1_555
N2_2 C10_2 1_555 1_555
C2_2 C5_2 1_555 1_555
C5_2 H2_2 1_555 1_555
C8_2 H4_2 1_555 1_555
C9_2 C2_2 1_555 1_555
C10_2 C5_2 1_555 1_555
C11_2 C13_2 1_555 1_555
C13_2 C8_2 1_555 1_555
C15_2 C2_2 1_555 1_555
H5_2 C15_2 1_555 1_555
O15_2 Zn3 1_555 1_555
O17_2 Zn3 1_555 1_555
C8_2 C10_2 1_555 1_555
C13_2 C15_2 1_555 1_555
O14 C7_2 1_555 1_555
O4_2 C7_2 1_555 1_555
O7_2 C1_2 1_555 1_555
C1_2 C4_2 1_555 1_555
C3_2 H1_2 1_555 1_555
C4_2 C3_2 1_555 1_555
C6_2 C4_2 1_555 1_555
H3_2 C6_2 1_555 1_555
C7_2 C12_2 1_555 1_555
C12_2 C3_2 1_555 1_555
C16_2 C12_2 1_555 1_555
H6_2 C16_2 1_555 1_555
Zn5 O4_2 1_555 1_555
C6_2 C14_2 1_555 1_555
C14_2 C16_2 1_555 1_555
Zn6 O3_2 1_555 1_555
O8_2 Zn6 1_555 1_555
C17_2 O8_2 1_555 1_555
H7_2 C17_2 1_555 1_555
O11_2 Zn6 1_555 1_555
Zn7 O3_3 1_555 1_555
O13 C9_3 1_555 1_555
O2_2 C7_3 1_555 1_555
O3_3 C1_3 1_555 1_555
O15 C7_3 1_555 1_555
O5_3 C11_3 1_555 1_555
O6_2 C9_3 1_555 1_555
O17_2 C1_3 1_555 1_555
O8_3 Zn7 1_555 1_555
O9_3 C11_3 1_555 1_555
O10_3 Zn7 1_555 1_555
N1_3 N2_3 1_555 1_555
N2_3 C10_3 1_555 1_555
C1_3 C4_3 1_555 1_555
C2_3 C5_3 1_555 1_555
C3_3 H1_3 1_555 1_555
C4_3 C3_3 1_555 1_555
C5_3 H2_3 1_555 1_555
C6_3 C4_3 1_555 1_555
H3_3 C6_3 1_555 1_555
C7_3 C12_3 1_555 1_555
C8_3 H4_3 1_555 1_555
C9_3 C2_3 1_555 1_555
C10_3 C5_3 1_555 1_555
C11_3 C13_3 1_555 1_555
C12_3 C3_3 1_555 1_555
C13_3 C8_3 1_555 1_555
C14_3 N1_3 1_555 1_555
C15_3 C2_3 1_555 1_555
H5_3 C15_3 1_555 1_555
C16_3 C12_3 1_555 1_555
H6_3 C16_3 1_555 1_555
C17_3 O8_3 1_555 1_555
H7_3 C17_3 1_555 1_555
N3_2 C17_3 1_555 1_555
C18_2 N3_2 1_555 1_555
H8_2 C18_2 1_555 1_555
H9_2 C18_2 1_555 1_555
H10_2 C18_2 1_555 1_555
C19_2 N3_2 1_555 1_555
H11_2 C19_2 1_555 1_555
H12_2 C19_2 1_555 1_555
H13_2 C19_2 1_555 1_555
O11_3 Zn7 1_555 1_555
Zn7_2 O2_2 1_555 1_555
O14_2 Zn7 1_555 1_555
O6_2 Zn5 1_555 1_555
C6_3 C14_3 1_555 1_555
C8_3 C10_3 1_555 1_555
C13_3 C15_3 1_555 1_555
C14_3 C16_3 1_555 1_555
Zn7_2 O3_4 1_555 1_555
O8_4 Zn7_2 1_555 1_555
C17_4 O8_4 1_555 1_555
H7_4 C17_4 1_555 1_555
O11_4 Zn7_2 1_555 1_555
O14_2 C7_4 1_555 1_555
O15_2 C7_4 1_555 1_555
O17 C1_4 1_555 1_555
C1_4 C4_4 1_555 1_555
C3_4 H1_4 1_555 1_555
C4_4 C3_4 1_555 1_555
C6_4 C4_4 1_555 1_555
H3_4 C6_4 1_555 1_555
C7_4 C12_4 1_555 1_555
C12_4 C3_4 1_555 1_555
C16_4 C12_4 1_555 1_555
H6_4 C16_4 1_555 1_555
C6_4 C14_4 1_555 1_555
C14_4 C16_4 1_555 1_555
Zn5 O5_4 1_555 1_555
O13_2 C9_4 1_555 1_555
O5_4 C11_4 1_555 1_555
O16_2 C9_4 1_555 1_555
O9_4 C11_4 1_555 1_555
N1_4 N2_4 1_555 1_555
N2_4 C10_4 1_555 1_555
C2_4 C5_4 1_555 1_555
C5_4 H2_4 1_555 1_555
C8_4 H4_4 1_555 1_555
C9_4 C2_4 1_555 1_555
C10_4 C5_4 1_555 1_555
C11_4 C13_4 1_555 1_555
C13_4 C8_4 1_555 1_555
C15_4 C2_4 1_555 1_555
H5_4 C15_4 1_555 1_555
C8_4 C10_4 1_555 1_555
C13_4 C15_4 1_555 1_555
C19_3 N3_3 1_555 1_555
H11_3 C19_3 1_555 1_555
H12_3 C19_3 1_555 1_555
H13_3 C19_3 1_555 1_555
H8_3 C18_3 1_555 1_555
H9_3 C18_3 1_555 1_555
H10_3 C18_3 1_555 1_555
H8_4 C18_4 1_555 1_555
H9_4 C18_4 1_555 1_555
H10_4 C18_4 1_555 1_555
C19_4 N3_4 1_555 1_555
H11_4 C19_4 1_555 1_555
H12_4 C19_4 1_555 1_555
H13_4 C19_4 1_555 1_555

#END
