
###############################################################################
#
# This file contains modified crystal structure data generated from the
# MOF subset of the Cambridge Structural Database (CSD) v542 
# hosted by the Cambridge Crystallographic Data Centre (CCDC).
#
# This work is licensed under the Creative Commons
# Attribution-NonCommercial-ShareAlike 4.0 International License.
# To view a copy of this license, visit
# http://creativecommons.org/licenses/by-nc-sa/4.0/
# or send a letter to
# Creative Commons, PO Box 1866, Mountain View, CA 94042, USA.
#
# CIF created using the CSD Python API on 22 February 2021
# The structure has been converted into the P1 space group
# The structure has a 3D framework
# The original CSD entry YIYHEW is in the tetragonal crystal system
# The original CSD entry YIYHEW is in a Sohncke space group
# The framework has been calculated to contain at least 10.0% void space
# The void calculation uses a probe of radius 1.32A, grid spacing 0.4
# The framework is charged, counterions have been retained in the structure
#
###############################################################################

data_YIYHEW
_chemical_formula_moiety         '(C96 H80 N48 O44 Zn4)n'
_symmetry_cell_setting           triclinic
_symmetry_space_group_name_H-M   'P 1'
_symmetry_Int_Tables_number      1
_space_group_name_Hall           'P 1'
loop_
_symmetry_equiv_pos_site_id
_symmetry_equiv_pos_as_xyz
1 x,y,z
_cell_length_a                   13.1992(2)
_cell_length_b                   13.1992(2)
_cell_length_c                   31.9115(9)
_cell_angle_alpha                90
_cell_angle_beta                 90
_cell_angle_gamma                90
_cell_volume                     5559.59
loop_
_atom_site_label
_atom_site_type_symbol
_atom_site_fract_x
_atom_site_fract_y
_atom_site_fract_z
C2 C 0.1942(3) 0.6850(3) 0.00074(12)
H1 H 0.209324 0.714092 0.026539
C7 C 0.0614(3) 0.5763(4) 0.03604(12)
O1 O 0.0002(2) 0.5046(2) 0.03018(8)
O2 O 0.0731(4) 0.6191(4) 0.06900(10)
O3 O 0.3584(3) 0.8229(3) 0.00208(9)
C1 C 0.1192(3) 0.6096(3) 0.99794(12)
C3 C 0.2452(3) 0.7159(3) 0.96537(12)
C4 C 0.2204(3) 0.6734(3) 0.92672(12)
H2 H 0.253542 0.695561 0.902679
C5 C 0.1473(3) 0.5988(3) 0.92367(11)
C6 C 0.0971(3) 0.5672(3) 0.95956(11)
H3 H 0.047930 0.516968 0.957697
C8 C 0.3264(3) 0.7955(3) 0.96838(13)
C9 C 0.1239(3) 0.5513(3) 0.88192(12)
O4 O 0.3614(2) 0.8250(2) 0.93292(8)
O5 O 0.1667(3) 0.5788(3) 0.85034(9)
O6 O 0.0592(2) 0.4802(2) 0.88270(7)
Zn2 Zn 0.02944(3) 0.41871(3) 0.82859(2)
Zn3 Zn 0.47056(3) 0.91871(3) 0.92141(2)
Zn1 Zn 0.08129(3) 0.52944(3) 0.57859(2)
C10 C 0.1934(3) 0.3597(3) 0.62566(11)
C11 C 0.3019(4) 0.2515(4) 0.59624(14)
C12 C 0.2278(3) 0.3677(3) 0.55546(12)
N1 N 0.1768(2) 0.4082(3) 0.58816(9)
N2 N 0.2549(3) 0.2811(3) 0.63127(11)
N3 N 0.2913(3) 0.2903(3) 0.55767(11)
N4 N 0.1437(3) 0.3936(3) 0.65885(10)
H4 H 0.151881 0.364894 0.682799
H5 H 0.103243 0.444351 0.656455
N5 N 0.3671(5) 0.1742(5) 0.60027(14)
H6 H 0.376627 0.146697 0.624387
H7 H 0.399471 0.152076 0.578730
N6 N 0.2149(3) 0.4089(3) 0.51780(10)
H8 H 0.247072 0.385062 0.496535
H9 H 0.174417 0.459393 0.514715
O7 O 0.1750(2) 0.6386(2) 0.56708(8)
O8 O 0.0198(2) 0.5592(2) 0.63270(7)
H10 H 0.265178 0.246867 0.659432
O7_2 O 0.1386(2) 0.3250(2) 0.81708(8)
C1_2 C 0.8904(3) 0.6192(3) 0.74794(12)
C2_2 C 0.8150(3) 0.6942(3) 0.75074(12)
H1_2 H 0.785908 0.709324 0.776539
C3_2 C 0.7841(3) 0.7452(3) 0.71537(12)
C4_2 C 0.8266(3) 0.7204(3) 0.67672(12)
H2_2 H 0.804439 0.753542 0.652679
C5_2 C 0.9012(3) 0.6473(3) 0.67367(11)
C6_2 C 0.9328(3) 0.5971(3) 0.70956(11)
H3_2 H 0.983032 0.547930 0.707697
C7_2 C 0.9237(4) 0.5614(3) 0.78604(12)
C8_2 C 0.7045(3) 0.8264(3) 0.71838(13)
C9_2 C 0.9487(3) 0.6239(3) 0.63192(12)
C10_2 C 0.8597(3) 0.3066(3) 0.87566(11)
C11_2 C 0.7515(4) 0.1981(4) 0.84624(14)
C12_2 C 0.8677(3) 0.2722(3) 0.80546(12)
N1_2 N 0.9082(3) 0.3232(2) 0.83816(9)
N2_2 N 0.7811(3) 0.2451(3) 0.88127(11)
N3_2 N 0.7903(3) 0.2087(3) 0.80767(11)
N4_2 N 0.8936(3) 0.3563(3) 0.90885(10)
H4_2 H 0.864894 0.348119 0.932799
H5_2 H 0.944351 0.396757 0.906455
N5_2 N 0.6742(5) 0.1329(5) 0.85027(14)
H6_2 H 0.646697 0.123373 0.874387
H7_2 H 0.652076 0.100529 0.828730
N6_2 N 0.9089(3) 0.2851(3) 0.76780(10)
H8_2 H 0.885062 0.252928 0.746535
H9_2 H 0.959393 0.325583 0.764715
O1_2 O 0.9954(2) 0.5002(2) 0.78018(8)
O2_2 O 0.8809(4) 0.5731(4) 0.81900(10)
O3_2 O 0.6771(3) 0.8584(3) 0.75208(9)
O4_2 O 0.6750(2) 0.8614(2) 0.68292(8)
O5_2 O 0.9212(3) 0.6667(3) 0.60034(9)
Zn3_2 Zn 0.58129(3) 0.97056(3) 0.67141(2)
H10_2 H 0.746867 0.234822 0.909432
C1_3 C 0.3808(3) 0.1096(3) 0.75206(12)
C2_3 C 0.3058(3) 0.1850(3) 0.74926(12)
H1_3 H 0.290676 0.214092 0.723461
C3_3 C 0.2548(3) 0.2159(3) 0.78463(12)
C4_3 C 0.2796(3) 0.1734(3) 0.82328(12)
H2_3 H 0.246458 0.195561 0.847321
C5_3 C 0.3527(3) 0.0988(3) 0.82633(11)
C6_3 C 0.4029(3) 0.0672(3) 0.79044(11)
H3_3 H 0.452070 0.016968 0.792303
C7_3 C 0.4386(3) 0.0763(4) 0.71396(12)
C8_3 C 0.1736(3) 0.2955(3) 0.78162(13)
C9_3 C 0.3761(3) 0.0513(3) 0.86808(12)
C10_3 C 0.6934(3) 0.1403(3) 0.62434(11)
C11_3 C 0.8019(4) 0.2485(4) 0.65376(14)
C12_3 C 0.7278(3) 0.1323(3) 0.69454(12)
N1_3 N 0.6768(2) 0.0918(3) 0.66184(9)
N2_3 N 0.7549(3) 0.2189(3) 0.61873(11)
N3_3 N 0.7913(3) 0.2097(3) 0.69233(11)
N4_3 N 0.6437(3) 0.1064(3) 0.59115(10)
H4_3 H 0.651881 0.135106 0.567201
H5_3 H 0.603243 0.055649 0.593545
N5_3 N 0.8671(5) 0.3258(5) 0.64973(14)
H6_3 H 0.876627 0.353303 0.625613
H7_3 H 0.899471 0.347924 0.671270
N6_3 N 0.7149(3) 0.0911(3) 0.73220(10)
H8_3 H 0.747072 0.114938 0.753465
H9_3 H 0.674417 0.040607 0.735285
O1_3 O 0.4998(2) 0.0046(2) 0.71982(8)
O2_3 O 0.4269(4) 0.1191(4) 0.68100(10)
O3_3 O 0.1416(3) 0.3229(3) 0.74792(9)
O5_3 O 0.3333(3) 0.0788(3) 0.89966(9)
H10_3 H 0.765178 0.253133 0.590568
O6_2 O 0.4408(2) 0.9802(2) 0.86730(7)
O8_2 O 0.5198(2) 0.9408(2) 0.61730(7)
C10_4 C 0.6403(3) 0.8066(3) 0.87434(11)
C11_4 C 0.7485(4) 0.6981(4) 0.90376(14)
C12_4 C 0.6323(3) 0.7722(3) 0.94454(12)
N1_4 N 0.5918(3) 0.8232(2) 0.91184(9)
N2_4 N 0.7189(3) 0.7451(3) 0.86873(11)
N3_4 N 0.7097(3) 0.7087(3) 0.94233(11)
N4_4 N 0.6064(3) 0.8563(3) 0.84115(10)
H4_4 H 0.635106 0.848119 0.817201
H5_4 H 0.555649 0.896757 0.843545
N5_4 N 0.8258(5) 0.6329(5) 0.89973(14)
H6_4 H 0.853303 0.623373 0.875613
H7_4 H 0.847924 0.600529 0.921270
N6_4 N 0.5911(3) 0.7851(3) 0.98220(10)
H9_4 H 0.540607 0.825583 0.985285
H10_4 H 0.753133 0.734822 0.840568
C1_4 C 0.3904(3) 0.8808(3) 0.50206(12)
C2_4 C 0.3150(3) 0.8058(3) 0.49926(12)
H1_4 H 0.285908 0.790676 0.473461
C3_4 C 0.2841(3) 0.7548(3) 0.53463(12)
C4_4 C 0.3266(3) 0.7796(3) 0.57328(12)
H2_4 H 0.304439 0.746458 0.597321
C5_4 C 0.4012(3) 0.8527(3) 0.57633(11)
C6_4 C 0.4328(3) 0.9029(3) 0.54044(11)
H3_4 H 0.483032 0.952070 0.542303
C7_4 C 0.4237(4) 0.9386(3) 0.46396(12)
C8_4 C 0.2045(3) 0.6736(3) 0.53162(13)
C9_4 C 0.4487(3) 0.8761(3) 0.61808(12)
O1_4 O 0.4954(2) 0.9998(2) 0.46982(8)
O2_4 O 0.3809(4) 0.9269(4) 0.43100(10)
O3_4 O 0.1771(3) 0.6416(3) 0.49792(9)
O5_4 O 0.4212(3) 0.8333(3) 0.64966(9)
Zn1_2 Zn 0.91871(3) 0.47056(3) 0.07859(2)
C10_5 C 0.8066(3) 0.6403(3) 0.12566(11)
C11_5 C 0.6981(4) 0.7485(4) 0.09624(14)
C12_5 C 0.7722(3) 0.6323(3) 0.05546(12)
N1_5 N 0.8232(2) 0.5918(3) 0.08816(9)
N2_5 N 0.7451(3) 0.7189(3) 0.13127(11)
N3_5 N 0.7087(3) 0.7097(3) 0.05767(11)
N4_5 N 0.8563(3) 0.6064(3) 0.15885(10)
H4_5 H 0.848119 0.635106 0.182799
H5_5 H 0.896757 0.555649 0.156455
N5_5 N 0.6329(5) 0.8258(5) 0.10027(14)
H6_5 H 0.623373 0.853303 0.124387
H7_5 H 0.600529 0.847924 0.078730
N6_5 N 0.7851(3) 0.5911(3) 0.01780(10)
H9_5 H 0.825583 0.540607 0.014715
O7_3 O 0.8250(2) 0.3614(2) 0.06708(8)
O8_3 O 0.9802(2) 0.4408(2) 0.13270(7)
H10_5 H 0.734822 0.753133 0.159432
C1_5 C 0.8808(3) 0.3904(3) 0.49794(12)
C2_5 C 0.8058(3) 0.3150(3) 0.50074(12)
H1_5 H 0.790676 0.285908 0.526539
C3_5 C 0.7548(3) 0.2841(3) 0.46537(12)
C4_5 C 0.7796(3) 0.3266(3) 0.42672(12)
H2_5 H 0.746458 0.304439 0.402679
C5_5 C 0.8527(3) 0.4012(3) 0.42367(11)
C6_5 C 0.9029(3) 0.4328(3) 0.45956(11)
H3_5 H 0.952070 0.483032 0.457697
C7_5 C 0.9386(3) 0.4237(4) 0.53604(12)
C8_5 C 0.6736(3) 0.2045(3) 0.46838(13)
C9_5 C 0.8761(3) 0.4487(3) 0.38192(12)
O1_5 O 0.9998(2) 0.4954(2) 0.53018(8)
O2_5 O 0.9269(4) 0.3809(4) 0.56900(10)
O3_5 O 0.6416(3) 0.1771(3) 0.50208(9)
O4_3 O 0.6386(2) 0.1750(2) 0.43292(8)
O5_5 O 0.8333(3) 0.4212(3) 0.35034(9)
O6_3 O 0.9408(2) 0.5198(2) 0.38270(7)
Zn2_2 Zn 0.97056(3) 0.58129(3) 0.32859(2)
Zn3_3 Zn 0.52944(3) 0.08129(3) 0.42141(2)
C1_6 C 0.1096(3) 0.3808(3) 0.24794(12)
C2_6 C 0.1850(3) 0.3058(3) 0.25074(12)
H1_6 H 0.214092 0.290676 0.276539
C3_6 C 0.2159(3) 0.2548(3) 0.21537(12)
C4_6 C 0.1734(3) 0.2796(3) 0.17672(12)
H2_6 H 0.195561 0.246458 0.152679
C5_6 C 0.0988(3) 0.3527(3) 0.17367(11)
C6_6 C 0.0672(3) 0.4029(3) 0.20956(11)
H3_6 H 0.016968 0.452070 0.207697
C7_6 C 0.0763(4) 0.4386(3) 0.28604(12)
C8_6 C 0.2955(3) 0.1736(3) 0.21838(13)
C9_6 C 0.0513(3) 0.3761(3) 0.13192(12)
C10_6 C 0.1403(3) 0.6934(3) 0.37566(11)
C11_6 C 0.2485(4) 0.8019(4) 0.34624(14)
C12_6 C 0.1323(3) 0.7278(3) 0.30546(12)
N1_6 N 0.0918(3) 0.6768(2) 0.33816(9)
N2_6 N 0.2189(3) 0.7549(3) 0.38127(11)
N3_6 N 0.2097(3) 0.7913(3) 0.30767(11)
N4_6 N 0.1064(3) 0.6437(3) 0.40885(10)
H4_6 H 0.135106 0.651881 0.432799
H5_6 H 0.055649 0.603243 0.406455
N5_6 N 0.3258(5) 0.8671(5) 0.35027(14)
H6_6 H 0.353303 0.876627 0.374387
H7_6 H 0.347924 0.899471 0.328730
N6_6 N 0.0911(3) 0.7149(3) 0.26780(10)
H8_4 H 0.114938 0.747072 0.246535
H9_6 H 0.040607 0.674417 0.264715
O1_6 O 0.0046(2) 0.4998(2) 0.28018(8)
O2_6 O 0.1191(4) 0.4269(4) 0.31900(10)
O3_6 O 0.3229(3) 0.1416(3) 0.25208(9)
O4_4 O 0.3250(2) 0.1386(2) 0.18292(8)
O5_6 O 0.0788(3) 0.3333(3) 0.10034(9)
Zn3_4 Zn 0.41871(3) 0.02944(3) 0.17141(2)
H10_6 H 0.253133 0.765178 0.409432
O7_4 O 0.8614(2) 0.6750(2) 0.31708(8)
O6_4 O 0.5592(2) 0.0198(2) 0.36730(7)
O8_4 O 0.4802(2) 0.0592(2) 0.11730(7)
C1_7 C 0.6192(3) 0.8904(3) 0.25206(12)
C2_7 C 0.6942(3) 0.8150(3) 0.24926(12)
H1_7 H 0.709324 0.785908 0.223461
C3_7 C 0.7452(3) 0.7841(3) 0.28463(12)
C4_7 C 0.7204(3) 0.8266(3) 0.32328(12)
H2_7 H 0.753542 0.804439 0.347321
C5_7 C 0.6473(3) 0.9012(3) 0.32633(11)
C6_7 C 0.5971(3) 0.9328(3) 0.29044(11)
H3_7 H 0.547930 0.983032 0.292303
C7_7 C 0.5614(3) 0.9237(4) 0.21396(12)
C8_7 C 0.8264(3) 0.7045(3) 0.28162(13)
C9_7 C 0.6239(3) 0.9487(3) 0.36808(12)
C10_7 C 0.3066(3) 0.8597(3) 0.12434(11)
C11_7 C 0.1981(4) 0.7515(4) 0.15376(14)
C12_7 C 0.2722(3) 0.8677(3) 0.19454(12)
N1_7 N 0.3232(2) 0.9082(3) 0.16184(9)
N2_7 N 0.2451(3) 0.7811(3) 0.11873(11)
N3_7 N 0.2087(3) 0.7903(3) 0.19233(11)
N4_7 N 0.3563(3) 0.8936(3) 0.09115(10)
H4_7 H 0.348119 0.864894 0.067201
H5_7 H 0.396757 0.944351 0.093545
N5_7 N 0.1329(5) 0.6742(5) 0.14973(14)
H6_7 H 0.123373 0.646697 0.125613
H7_7 H 0.100529 0.652076 0.171270
N6_7 N 0.2851(3) 0.9089(3) 0.23220(10)
H8_5 H 0.252928 0.885062 0.253465
H9_7 H 0.325583 0.959393 0.235285
O1_7 O 0.5002(2) 0.9954(2) 0.21982(8)
O2_7 O 0.5731(4) 0.8809(4) 0.18100(10)
O3_7 O 0.8584(3) 0.6771(3) 0.24792(9)
O5_7 O 0.6667(3) 0.9212(3) 0.39966(9)
H10_7 H 0.234822 0.746867 0.0905679
C1_8 C 0.6096(3) 0.1192(3) 0.00206(12)
C3_8 C 0.7159(3) 0.2452(3) 0.03463(12)
C4_8 C 0.6734(3) 0.2204(3) 0.07328(12)
H2_8 H 0.695561 0.253542 0.097321
C5_8 C 0.5988(3) 0.1473(3) 0.07633(11)
C6_8 C 0.5672(3) 0.0971(3) 0.04044(11)
H3_8 H 0.516968 0.047930 0.042303
C8_8 C 0.7955(3) 0.3264(3) 0.03162(13)
C9_8 C 0.5513(3) 0.1239(3) 0.11808(12)
O5_8 O 0.5788(3) 0.1667(3) 0.14966(9)
C10_8 C 0.3597(3) 0.1934(3) 0.37434(11)
C11_8 C 0.2515(4) 0.3019(4) 0.40376(14)
C12_8 C 0.3677(3) 0.2278(3) 0.44454(12)
N1_8 N 0.4082(3) 0.1768(2) 0.41184(9)
N2_8 N 0.2811(3) 0.2549(3) 0.36873(11)
N3_8 N 0.2903(3) 0.2913(3) 0.44233(11)
N4_8 N 0.3936(3) 0.1437(3) 0.34115(10)
H4_8 H 0.364894 0.151881 0.317201
H5_8 H 0.444351 0.103243 0.343545
N5_8 N 0.1742(5) 0.3671(5) 0.39973(14)
H6_8 H 0.146697 0.376627 0.375613
H7_8 H 0.152076 0.399471 0.421270
N6_8 N 0.4089(3) 0.2149(3) 0.48220(10)
H8_6 H 0.385062 0.247072 0.503465
H9_8 H 0.459393 0.174417 0.485285
H10_8 H 0.246867 0.265178 0.340568
H8_7 H 0.752928 0.614938 0.996535
C2_8 C 0.6850(3) 0.1942(3) 0.99926(12)
H1_8 H 0.714092 0.209324 0.973461
C7_8 C 0.5763(4) 0.0614(3) 0.96396(12)
O1_8 O 0.5046(2) 0.0002(2) 0.96982(8)
O2_8 O 0.6191(4) 0.0731(4) 0.93100(10)
O3_8 O 0.8229(3) 0.3584(3) 0.99792(9)
H8_8 H 0.614938 0.752928 0.003465
loop_
_geom_bond_atom_site_label_1
_geom_bond_atom_site_label_2
_geom_bond_site_symmetry_1
_geom_bond_site_symmetry_2
C2 H1 1_555 1_555
O2 C7 1_555 1_555
C7 O1 1_555 1_555
C4 C3 1_555 1_555
H2 C4 1_555 1_555
C5 C4 1_555 1_555
C6 C1 1_555 1_555
H3 C6 1_555 1_555
C8 C3 1_555 1_555
C9 C5 1_555 1_555
O4 C8 1_555 1_555
O5 C9 1_555 1_555
O6 C9 1_555 1_555
Zn2 O6 1_555 1_555
Zn3 O4 1_555 1_555
C5 C6 1_555 1_555
Zn1 N1 1_555 1_555
C10 N1 1_555 1_555
C11 N2 1_555 1_555
C12 N1 1_555 1_555
N2 C10 1_555 1_555
N3 C11 1_555 1_555
N4 C10 1_555 1_555
H4 N4 1_555 1_555
H5 N4 1_555 1_555
N5 C11 1_555 1_555
H6 N5 1_555 1_555
H7 N5 1_555 1_555
N6 C12 1_555 1_555
H8 N6 1_555 1_555
H9 N6 1_555 1_555
O7 Zn1 1_555 1_555
O8 Zn1 1_555 1_555
C12 N3 1_555 1_555
N2 H10 1_555 1_555
O7_2 Zn2 1_555 1_555
C1_2 C2_2 1_555 1_555
C2_2 H1_2 1_555 1_555
C3_2 C2_2 1_555 1_555
C4_2 C3_2 1_555 1_555
H2_2 C4_2 1_555 1_555
C5_2 C4_2 1_555 1_555
C6_2 C1_2 1_555 1_555
H3_2 C6_2 1_555 1_555
C7_2 C1_2 1_555 1_555
C8_2 C3_2 1_555 1_555
C9_2 C5_2 1_555 1_555
C10_2 N1_2 1_555 1_555
C11_2 N2_2 1_555 1_555
C12_2 N1_2 1_555 1_555
N2_2 C10_2 1_555 1_555
N3_2 C11_2 1_555 1_555
N4_2 C10_2 1_555 1_555
H4_2 N4_2 1_555 1_555
H5_2 N4_2 1_555 1_555
N5_2 C11_2 1_555 1_555
H6_2 N5_2 1_555 1_555
H7_2 N5_2 1_555 1_555
N6_2 C12_2 1_555 1_555
H8_2 N6_2 1_555 1_555
H9_2 N6_2 1_555 1_555
O2_2 C7_2 1_555 1_555
O3_2 C8_2 1_555 1_555
O4_2 C8_2 1_555 1_555
O5_2 C9_2 1_555 1_555
Zn3_2 O4_2 1_555 1_555
C5_2 C6_2 1_555 1_555
C7_2 O1_2 1_555 1_555
C12_2 N3_2 1_555 1_555
N2_2 H10_2 1_555 1_555
C1_3 C2_3 1_555 1_555
C2_3 H1_3 1_555 1_555
C3_3 C2_3 1_555 1_555
C4_3 C3_3 1_555 1_555
H2_3 C4_3 1_555 1_555
C5_3 C4_3 1_555 1_555
C6_3 C1_3 1_555 1_555
H3_3 C6_3 1_555 1_555
C7_3 C1_3 1_555 1_555
C8_3 C3_3 1_555 1_555
C9_3 C5_3 1_555 1_555
C10_3 N1_3 1_555 1_555
C11_3 N2_3 1_555 1_555
C12_3 N1_3 1_555 1_555
N2_3 C10_3 1_555 1_555
N3_3 C11_3 1_555 1_555
N4_3 C10_3 1_555 1_555
H4_3 N4_3 1_555 1_555
H5_3 N4_3 1_555 1_555
N5_3 C11_3 1_555 1_555
H6_3 N5_3 1_555 1_555
H7_3 N5_3 1_555 1_555
N6_3 C12_3 1_555 1_555
H8_3 N6_3 1_555 1_555
H9_3 N6_3 1_555 1_555
O2_3 C7_3 1_555 1_555
O3_3 C8_3 1_555 1_555
O7_2 C8_3 1_555 1_555
O5_3 C9_3 1_555 1_555
C5_3 C6_3 1_555 1_555
C7_3 O1_3 1_555 1_555
C12_3 N3_3 1_555 1_555
N2_3 H10_3 1_555 1_555
Zn3 O6_2 1_555 1_555
O8_2 Zn3_2 1_555 1_555
Zn3 N1_4 1_555 1_555
C10_4 N1_4 1_555 1_555
C11_4 N2_4 1_555 1_555
C12_4 N1_4 1_555 1_555
N2_4 C10_4 1_555 1_555
N3_4 C11_4 1_555 1_555
N4_4 C10_4 1_555 1_555
H4_4 N4_4 1_555 1_555
H5_4 N4_4 1_555 1_555
N5_4 C11_4 1_555 1_555
H6_4 N5_4 1_555 1_555
H7_4 N5_4 1_555 1_555
N6_4 C12_4 1_555 1_555
H9_4 N6_4 1_555 1_555
C12_4 N3_4 1_555 1_555
N2_4 H10_4 1_555 1_555
C1_4 C2_4 1_555 1_555
C2_4 H1_4 1_555 1_555
C3_4 C2_4 1_555 1_555
C4_4 C3_4 1_555 1_555
H2_4 C4_4 1_555 1_555
C5_4 C4_4 1_555 1_555
C6_4 C1_4 1_555 1_555
H3_4 C6_4 1_555 1_555
C7_4 C1_4 1_555 1_555
C8_4 C3_4 1_555 1_555
C9_4 C5_4 1_555 1_555
O2_4 C7_4 1_555 1_555
O3_4 C8_4 1_555 1_555
O7 C8_4 1_555 1_555
O5_4 C9_4 1_555 1_555
O8_2 C9_4 1_555 1_555
C5_4 C6_4 1_555 1_555
C7_4 O1_4 1_555 1_555
Zn1_2 N1_5 1_555 1_555
C10_5 N1_5 1_555 1_555
C11_5 N2_5 1_555 1_555
C12_5 N1_5 1_555 1_555
N2_5 C10_5 1_555 1_555
N3_5 C11_5 1_555 1_555
N4_5 C10_5 1_555 1_555
H4_5 N4_5 1_555 1_555
H5_5 N4_5 1_555 1_555
N5_5 C11_5 1_555 1_555
H6_5 N5_5 1_555 1_555
H7_5 N5_5 1_555 1_555
N6_5 C12_5 1_555 1_555
H9_5 N6_5 1_555 1_555
O7_3 Zn1_2 1_555 1_555
O8_3 Zn1_2 1_555 1_555
C12_5 N3_5 1_555 1_555
N2_5 H10_5 1_555 1_555
C1_5 C2_5 1_555 1_555
C2_5 H1_5 1_555 1_555
C3_5 C2_5 1_555 1_555
C4_5 C3_5 1_555 1_555
H2_5 C4_5 1_555 1_555
C5_5 C4_5 1_555 1_555
C6_5 C1_5 1_555 1_555
H3_5 C6_5 1_555 1_555
C7_5 C1_5 1_555 1_555
C8_5 C3_5 1_555 1_555
C9_5 C5_5 1_555 1_555
O2_5 C7_5 1_555 1_555
O3_5 C8_5 1_555 1_555
O4_3 C8_5 1_555 1_555
O5_5 C9_5 1_555 1_555
O6_3 C9_5 1_555 1_555
Zn2_2 O6_3 1_555 1_555
Zn3_3 O4_3 1_555 1_555
C5_5 C6_5 1_555 1_555
C7_5 O1_5 1_555 1_555
C1_6 C2_6 1_555 1_555
C2_6 H1_6 1_555 1_555
C3_6 C2_6 1_555 1_555
C4_6 C3_6 1_555 1_555
H2_6 C4_6 1_555 1_555
C5_6 C4_6 1_555 1_555
C6_6 C1_6 1_555 1_555
H3_6 C6_6 1_555 1_555
C7_6 C1_6 1_555 1_555
C8_6 C3_6 1_555 1_555
C9_6 C5_6 1_555 1_555
C10_6 N1_6 1_555 1_555
C11_6 N2_6 1_555 1_555
C12_6 N1_6 1_555 1_555
N2_6 C10_6 1_555 1_555
N3_6 C11_6 1_555 1_555
N4_6 C10_6 1_555 1_555
H4_6 N4_6 1_555 1_555
H5_6 N4_6 1_555 1_555
N5_6 C11_6 1_555 1_555
H6_6 N5_6 1_555 1_555
H7_6 N5_6 1_555 1_555
N6_6 C12_6 1_555 1_555
H8_4 N6_6 1_555 1_555
H9_6 N6_6 1_555 1_555
O2_6 C7_6 1_555 1_555
O3_6 C8_6 1_555 1_555
O4_4 C8_6 1_555 1_555
O5_6 C9_6 1_555 1_555
Zn3_4 O4_4 1_555 1_555
C5_6 C6_6 1_555 1_555
C7_6 O1_6 1_555 1_555
C12_6 N3_6 1_555 1_555
N2_6 H10_6 1_555 1_555
O7_4 Zn2_2 1_555 1_555
Zn3_3 O6_4 1_555 1_555
O8_4 Zn3_4 1_555 1_555
C1_7 C2_7 1_555 1_555
C2_7 H1_7 1_555 1_555
C3_7 C2_7 1_555 1_555
C4_7 C3_7 1_555 1_555
H2_7 C4_7 1_555 1_555
C5_7 C4_7 1_555 1_555
C6_7 C1_7 1_555 1_555
H3_7 C6_7 1_555 1_555
C7_7 C1_7 1_555 1_555
C8_7 C3_7 1_555 1_555
C9_7 C5_7 1_555 1_555
C10_7 N1_7 1_555 1_555
C11_7 N2_7 1_555 1_555
C12_7 N1_7 1_555 1_555
N2_7 C10_7 1_555 1_555
N3_7 C11_7 1_555 1_555
N4_7 C10_7 1_555 1_555
H4_7 N4_7 1_555 1_555
H5_7 N4_7 1_555 1_555
N5_7 C11_7 1_555 1_555
H6_7 N5_7 1_555 1_555
H7_7 N5_7 1_555 1_555
N6_7 C12_7 1_555 1_555
H8_5 N6_7 1_555 1_555
H9_7 N6_7 1_555 1_555
O2_7 C7_7 1_555 1_555
O3_7 C8_7 1_555 1_555
O7_4 C8_7 1_555 1_555
O5_7 C9_7 1_555 1_555
C5_7 C6_7 1_555 1_555
C7_7 O1_7 1_555 1_555
C12_7 N3_7 1_555 1_555
N2_7 H10_7 1_555 1_555
C4_8 C3_8 1_555 1_555
H2_8 C4_8 1_555 1_555
C5_8 C4_8 1_555 1_555
C6_8 C1_8 1_555 1_555
H3_8 C6_8 1_555 1_555
C8_8 C3_8 1_555 1_555
C9_8 C5_8 1_555 1_555
O7_3 C8_8 1_555 1_555
O5_8 C9_8 1_555 1_555
O8_4 C9_8 1_555 1_555
C5_8 C6_8 1_555 1_555
Zn3_3 N1_8 1_555 1_555
C10_8 N1_8 1_555 1_555
C11_8 N2_8 1_555 1_555
C12_8 N1_8 1_555 1_555
N2_8 C10_8 1_555 1_555
N3_8 C11_8 1_555 1_555
N4_8 C10_8 1_555 1_555
H4_8 N4_8 1_555 1_555
H5_8 N4_8 1_555 1_555
N5_8 C11_8 1_555 1_555
H6_8 N5_8 1_555 1_555
H7_8 N5_8 1_555 1_555
N6_8 C12_8 1_555 1_555
H8_6 N6_8 1_555 1_555
H9_8 N6_8 1_555 1_555
C12_8 N3_8 1_555 1_555
N2_8 H10_8 1_555 1_555
C2_8 H1_8 1_555 1_555
O2_8 C7_8 1_555 1_555
C7_8 O1_8 1_555 1_555

#END
