
###############################################################################
#
# This file contains modified crystal structure data generated from the
# MOF subset of the Cambridge Structural Database (CSD) v542 
# hosted by the Cambridge Crystallographic Data Centre (CCDC).
#
# This work is licensed under the Creative Commons
# Attribution-NonCommercial-ShareAlike 4.0 International License.
# To view a copy of this license, visit
# http://creativecommons.org/licenses/by-nc-sa/4.0/
# or send a letter to
# Creative Commons, PO Box 1866, Mountain View, CA 94042, USA.
#
# CIF created using the CSD Python API on 22 February 2021
# The structure has been converted into the P1 space group
# The structure has a 3D framework
# The original CSD entry ZUVCOL is in the monoclinic crystal system
# The framework has been calculated to contain at least 10.0% void space
# The void calculation uses a probe of radius 1.32A, grid spacing 0.4
#
###############################################################################

data_ZUVCOL
_chemical_formula_moiety         '(C156 H104 Cu10 N36 O28)n'
_symmetry_cell_setting           triclinic
_symmetry_space_group_name_H-M   'P 1'
_symmetry_Int_Tables_number      1
_space_group_name_Hall           'P 1'
loop_
_symmetry_equiv_pos_site_id
_symmetry_equiv_pos_as_xyz
1 x,y,z
_cell_length_a                   8.2170(2)
_cell_length_b                   28.996(3)
_cell_length_c                   18.7350(15)
_cell_angle_alpha                90
_cell_angle_beta                 94.451(2)
_cell_angle_gamma                90
_cell_volume                     4450.34
loop_
_atom_site_label
_atom_site_type_symbol
_atom_site_fract_x
_atom_site_fract_y
_atom_site_fract_z
Cu2 Cu 0.02095(5) 0.74353(2) 0.72389(2)
Cu9 Cu 0.02095(5) 0.75647(2) 0.22389(2)
O15 O 0.1037(3) 0.71028(9) 0.81416(13)
O17 O 0.2452(3) 0.70210(9) 0.72171(13)
O19 O 0.0174(3) 0.78665(8) 0.63561(13)
O21 O 0.1572(3) 0.80615(8) 0.73347(12)
O10 O 0.8963(3) 0.28972(9) 0.18584(13)
O11 O 0.7548(3) 0.29790(9) 0.27829(13)
O12 O 0.0174(3) 0.71335(8) 0.13561(13)
O13 O 0.1572(3) 0.69385(8) 0.23347(12)
C62 C 0.2585(4) 0.51143(12) 0.04139(17)
N17 N 0.3330(4) 0.47597(12) 0.08146(17)
C63 C 0.3822(4) 0.43617(12) 0.04864(17)
C64 C 0.4740(5) 0.40066(12) 0.09036(17)
C65 C 0.4494(5) 0.39211(14) 0.16190(19)
H45 H 0.366800 0.407588 0.183285
C66 C 0.5453(5) 0.36121(14) 0.20108(19)
H46 H 0.526534 0.355855 0.248691
C67 C 0.6681(5) 0.33812(12) 0.17134(18)
C68 C 0.6926(5) 0.34614(14) 0.1005(2)
H47 H 0.775957 0.330788 0.079404
C69 C 0.5959(5) 0.37636(14) 0.0611(2)
H48 H 0.612843 0.380664 0.013006
C70 C 0.7782(5) 0.30681(12) 0.21441(19)
C71 C 0.2157(4) 0.55509(12) 0.07580(17)
C72 C 0.3015(5) 0.57062(13) 0.1375(2)
H49 H 0.384757 0.552480 0.158995
C73 C 0.2665(5) 0.61225(14) 0.1677(2)
H50 H 0.325149 0.621559 0.209714
C74 C 0.1468(5) 0.64020(12) 0.13705(18)
C75 C 0.0626(5) 0.62557(12) 0.07497(18)
C76 C 0.0951(4) 0.58335(12) 0.04566(17)
H52 H 0.034017 0.573738 0.004480
C77 C 0.1067(4) 0.68468(11) 0.17009(18)
Cu7 Cu 0.97905(5) 0.25647(2) 0.27611(2)
Cu1 Cu 0.000000 0.500000 0.500000
N1 N 0.2106(3) 0.51524(10) 0.45414(14)
N2 N 0.4198(4) 0.55760(10) 0.43373(15)
N3 N 0.8262(4) 0.72778(10) 0.26444(15)
N4 N 0.6849(4) 0.68917(10) 0.33809(15)
N5 N 0.8961(4) 0.69150(10) 0.67533(15)
N6 N 0.7634(4) 0.65363(10) 0.58899(15)
O7 O 0.0250(3) 0.43102(9) 0.46849(12)
C1 C 0.5987(4) 0.60429(12) 0.50995(19)
H3 H 0.582425 0.584586 0.547914
C2 C 0.5282(4) 0.59534(11) 0.44309(19)
C3 C 0.5537(4) 0.62331(12) 0.38516(19)
H4 H 0.505220 0.616836 0.339754
C4 C 0.6522(4) 0.66054(12) 0.39711(18)
C5 C 0.7216(4) 0.67165(12) 0.46369(18)
H5 H 0.785725 0.697934 0.470582
C6 C 0.6944(4) 0.64309(12) 0.52018(18)
C7 C 0.3106(4) 0.54626(12) 0.48030(19)
H6 H 0.307388 0.559108 0.525645
C8 C 0.2567(5) 0.50603(14) 0.3874(2)
H7 H 0.205825 0.484852 0.355746
C9 C 0.3849(5) 0.53168(14) 0.3740(2)
H8 H 0.439508 0.531871 0.332290
C10 C 0.8317(4) 0.70409(12) 0.32414(18)
H9 H 0.926680 0.698436 0.353116
C11 C 0.5798(5) 0.70407(16) 0.2842(2)
H10 H 0.467895 0.698704 0.278720
C12 C 0.6685(5) 0.72817(16) 0.2399(2)
H11 H 0.626730 0.742960 0.198431
C13 C 0.8509(5) 0.69057(13) 0.60824(19)
H12 H 0.876996 0.713511 0.576354
C14 C 0.8405(8) 0.65211(17) 0.7017(2)
H13 H 0.856326 0.642713 0.749222
C15 C 0.7605(8) 0.62890(18) 0.6505(2)
H14 H 0.710288 0.600434 0.655328
O8 O 0.1275(3) 0.48789(9) 0.59455(12)
O9 O 0.0672(3) 0.41381(9) 0.60738(12)
H28 H 0.059919 0.581522 0.549710
C55 C 0.1730(4) 0.45513(12) 0.70880(17)
C56 C 0.2084(5) 0.49719(13) 0.73935(19)
H41 H 0.206093 0.523486 0.710865
C57 C 0.2475(5) 0.50085(13) 0.81182(19)
H42 H 0.272666 0.529622 0.831650
C58 C 0.2500(4) 0.46239(12) 0.85584(17)
C59 C 0.2204(5) 0.41999(12) 0.82363(18)
H43 H 0.226810 0.393417 0.851498
C60 C 0.1821(5) 0.41648(12) 0.75184(18)
H44 H 0.161689 0.387588 0.731519
C61 C 0.2807(4) 0.46673(12) 0.93413(17)
N16 N 0.2327(4) 0.50661(11) 0.96827(17)
N18 N 0.3547(4) 0.43143(11) 0.97454(17)
C78 C 0.1183(4) 0.45160(12) 0.63059(17)
N20 N 0.8262(4) 0.77222(10) 0.76444(15)
Cu1_2 Cu 1.000000 0.500000 0.500000
O1 O 0.8725(3) 0.51211(9) 0.40545(12)
O2 O 0.9328(3) 0.58619(9) 0.39262(12)
H2 H 0.940081 0.418478 0.450290
C16 C 0.8270(4) 0.54487(12) 0.29120(17)
C17 C 0.7916(5) 0.50281(13) 0.26065(19)
H15 H 0.793907 0.476514 0.289135
C18 C 0.7525(5) 0.49915(13) 0.18818(19)
H16 H 0.727334 0.470378 0.168350
C19 C 0.7500(4) 0.53761(12) 0.14416(17)
C20 C 0.7796(5) 0.58001(12) 0.17637(18)
H17 H 0.773190 0.606583 0.148502
C21 C 0.8179(5) 0.58352(12) 0.24816(18)
H18 H 0.838311 0.612412 0.268481
C22 C 0.7193(4) 0.53327(12) 0.06587(17)
N7 N 0.7673(4) 0.49339(11) 0.03173(17)
N9 N 0.6453(4) 0.56857(11) 0.02546(17)
C39 C 0.8817(4) 0.54840(12) 0.36941(17)
N10 N 0.7894(3) 0.48476(10) 0.54586(14)
N11 N 0.5802(4) 0.44240(10) 0.56627(15)
N12 N 0.1738(4) 0.27222(10) 0.73556(15)
N13 N 0.3151(4) 0.31083(10) 0.66191(15)
N14 N 0.1039(4) 0.30850(10) 0.32467(15)
N15 N 0.2366(4) 0.34637(10) 0.41101(15)
O14 O 0.9750(3) 0.56898(9) 0.53151(12)
C40 C 0.4013(4) 0.39571(12) 0.49005(19)
H29 H 0.417575 0.415414 0.452086
C41 C 0.4718(4) 0.40466(11) 0.55691(19)
C42 C 0.4463(4) 0.37669(12) 0.61484(19)
H30 H 0.494780 0.383164 0.660246
C43 C 0.3478(4) 0.33946(12) 0.60289(18)
C44 C 0.2784(4) 0.32835(12) 0.53631(18)
H31 H 0.214275 0.302066 0.529418
C45 C 0.3056(4) 0.35691(12) 0.47982(18)
C46 C 0.6894(4) 0.45374(12) 0.51970(19)
H32 H 0.692612 0.440892 0.474355
C47 C 0.7433(5) 0.49397(14) 0.6126(2)
H33 H 0.794175 0.515148 0.644254
C48 C 0.6151(5) 0.46832(14) 0.6260(2)
H34 H 0.560492 0.468129 0.667710
C49 C 0.1683(4) 0.29591(12) 0.67586(18)
H35 H 0.073320 0.301564 0.646884
C50 C 0.4202(5) 0.29593(16) 0.7158(2)
H36 H 0.532105 0.301296 0.721280
C51 C 0.3315(5) 0.27183(16) 0.7601(2)
H37 H 0.373270 0.257040 0.801569
C52 C 0.1491(5) 0.30943(13) 0.39176(19)
H38 H 0.123004 0.286489 0.423646
C53 C 0.1595(8) 0.34789(17) 0.2983(2)
H39 H 0.143674 0.357287 0.250778
C54 C 0.2395(8) 0.37110(18) 0.3495(2)
H40 H 0.289712 0.399566 0.344672
N19 N 0.1738(4) 0.22778(10) 0.23556(15)
O5 O 0.9826(3) 0.28665(8) 0.86439(13)
O6 O 0.8428(3) 0.30615(8) 0.76653(12)
C23 C 0.7415(4) 0.48857(12) 0.95861(17)
N8 N 0.6670(4) 0.52403(12) 0.91854(17)
C24 C 0.6178(4) 0.56383(12) 0.95136(17)
C25 C 0.5260(5) 0.59934(12) 0.90964(17)
C26 C 0.5506(5) 0.60789(14) 0.83810(19)
H19 H 0.633200 0.592412 0.816715
C27 C 0.4547(5) 0.63879(14) 0.79892(19)
H20 H 0.473466 0.644145 0.751309
C28 C 0.3319(5) 0.66188(12) 0.82866(18)
C29 C 0.3074(5) 0.65386(14) 0.8995(2)
H21 H 0.224043 0.669212 0.920596
C30 C 0.4041(5) 0.62364(14) 0.9389(2)
H22 H 0.387157 0.619336 0.986994
C31 C 0.2218(5) 0.69319(12) 0.78559(19)
C32 C 0.7843(4) 0.44491(12) 0.92420(17)
C33 C 0.6985(5) 0.42938(13) 0.8625(2)
H23 H 0.615243 0.447520 0.841005
C34 C 0.7335(5) 0.38775(14) 0.8323(2)
H24 H 0.674851 0.378441 0.790286
C35 C 0.8532(5) 0.35980(12) 0.86295(18)
C36 C 0.9374(5) 0.37443(12) 0.92503(18)
C37 C 0.9049(4) 0.41665(12) 0.95434(17)
H26 H 0.965983 0.426262 0.995520
C38 C 0.8933(4) 0.31532(11) 0.82991(18)
Cu6 Cu 0.97905(5) 0.24353(2) 0.77611(2)
O20 O 0.9826(3) 0.21335(8) 0.36439(13)
O22 O 0.8428(3) 0.19385(8) 0.26653(12)
O16 O 0.1037(3) 0.78972(9) 0.31416(13)
O18 O 0.2452(3) 0.79790(9) 0.22171(13)
Cu1_3 Cu 0.000000 0.000000 0.000000
O1_2 O 0.1275(3) 0.01211(9) 0.09455(12)
O2_2 O 0.0672(3) 0.08619(9) 0.10738(12)
O3 O 0.8963(3) 0.21028(9) 0.68584(13)
O4 O 0.7548(3) 0.20210(9) 0.77829(13)
C16_2 C 0.1730(4) 0.04487(12) 0.20880(17)
C17_2 C 0.2084(5) 0.00281(13) 0.23935(19)
C19_2 C 0.2500(4) 0.03761(12) 0.35584(17)
C20_2 C 0.2204(5) 0.08001(12) 0.32363(18)
H17_2 H 0.226810 0.106583 0.351498
C21_2 C 0.1821(5) 0.08352(12) 0.25184(18)
H18_2 H 0.161689 0.112412 0.231519
C22_2 C 0.2807(4) 0.03327(12) 0.43413(17)
N8_2 N 0.3330(4) 0.02403(12) 0.58146(17)
C24_2 C 0.3822(4) 0.06383(12) 0.54864(17)
N9_2 N 0.3547(4) 0.06857(11) 0.47454(17)
C25_2 C 0.4740(5) 0.09934(12) 0.59036(17)
C26_2 C 0.4494(5) 0.10789(14) 0.66190(19)
H19_2 H 0.366800 0.092412 0.683285
C27_2 C 0.5453(5) 0.13879(14) 0.70108(19)
H20_2 H 0.526534 0.144145 0.748691
C28_2 C 0.6681(5) 0.16188(12) 0.67134(18)
C29_2 C 0.6926(5) 0.15386(14) 0.6005(2)
H21_2 H 0.775957 0.169212 0.579404
C30_2 C 0.5959(5) 0.12364(14) 0.5611(2)
H22_2 H 0.612843 0.119336 0.513006
C31_2 C 0.7782(5) 0.19319(12) 0.71441(19)
C39_2 C 0.1183(4) 0.04840(12) 0.13059(17)
Cu1_4 Cu 0.000000 1.000000 0.000000
H2_2 H 0.059919 0.918478 0.049710
H15_2 H 0.206093 0.976514 0.210865
C18_2 C 0.2475(5) 0.99915(13) 0.31182(19)
H16_2 H 0.272666 0.970378 0.331650
N7_2 N 0.2327(4) 0.99339(11) 0.46827(17)
C23_2 C 0.2585(4) 0.98857(12) 0.54139(17)
C32_2 C 0.2157(4) 0.94491(12) 0.57580(17)
C33_2 C 0.3015(5) 0.92938(13) 0.6375(2)
H23_2 H 0.384757 0.947520 0.658995
C34_2 C 0.2665(5) 0.88775(14) 0.6677(2)
H24_2 H 0.325149 0.878441 0.709714
C35_2 C 0.1468(5) 0.85980(12) 0.63705(18)
C36_2 C 0.0626(5) 0.87443(12) 0.57497(18)
C37_2 C 0.0951(4) 0.91665(12) 0.54566(17)
H26_2 H 0.034017 0.926262 0.504480
C38_2 C 0.1067(4) 0.81532(11) 0.67009(18)
N14_2 N 0.8961(4) 0.80850(10) 0.17533(15)
N15_2 N 0.7634(4) 0.84637(10) 0.08899(15)
C40_2 C 0.5987(4) 0.89571(12) 0.00995(19)
H29_2 H 0.582425 0.915414 0.047914
C45_2 C 0.6944(4) 0.85691(12) 0.02018(18)
H32_2 H 0.307388 0.940892 0.025645
C52_2 C 0.8509(5) 0.80943(13) 0.10824(19)
H38_2 H 0.876996 0.786489 0.076354
C53_2 C 0.8405(8) 0.84789(17) 0.2017(2)
H39_2 H 0.856326 0.857287 0.249222
C54_2 C 0.7605(8) 0.87110(18) 0.1505(2)
H40_2 H 0.710288 0.899566 0.155328
Cu1_5 Cu 0.000000 1.000000 1.000000
N10_2 N 0.2106(3) 0.98476(10) 0.95414(14)
N11_2 N 0.4198(4) 0.94240(10) 0.93373(15)
N13_2 N 0.6849(4) 0.81083(10) 0.83809(15)
C41_2 C 0.5282(4) 0.90466(11) 0.94309(19)
C42_2 C 0.5537(4) 0.87669(12) 0.88516(19)
H30_2 H 0.505220 0.883164 0.839754
C43_2 C 0.6522(4) 0.83946(12) 0.89711(18)
C44_2 C 0.7216(4) 0.82835(12) 0.96369(18)
H31_2 H 0.785725 0.802066 0.970582
C46_2 C 0.3106(4) 0.95374(12) 0.98030(19)
C47_2 C 0.2567(5) 0.99397(14) 0.8874(2)
C48_2 C 0.3849(5) 0.96832(14) 0.8740(2)
H34_2 H 0.439508 0.968129 0.832290
C49_2 C 0.8317(4) 0.79591(12) 0.82414(18)
H35_2 H 0.926680 0.801564 0.853116
C50_2 C 0.5798(5) 0.79593(16) 0.7842(2)
H36_2 H 0.467895 0.801296 0.778720
C51_2 C 0.6685(5) 0.77183(16) 0.7399(2)
H37_2 H 0.626730 0.757040 0.698431
Cu1_6 Cu 1.000000 0.000000 0.000000
N1_2 N 0.7894(3) 0.01524(10) 0.04586(14)
N2_2 N 0.5802(4) 0.05760(10) 0.06627(15)
N4_2 N 0.3151(4) 0.18917(10) 0.16191(15)
C2_2 C 0.4718(4) 0.09534(11) 0.05691(19)
C3_2 C 0.4463(4) 0.12331(12) 0.11484(19)
H4_2 H 0.494780 0.116836 0.160246
C4_2 C 0.3478(4) 0.16054(12) 0.10289(18)
C5_2 C 0.2784(4) 0.17165(12) 0.03631(18)
H5_2 H 0.214275 0.197934 0.029418
C7_2 C 0.6894(4) 0.04626(12) 0.01970(19)
C8_2 C 0.7433(5) 0.00603(14) 0.1126(2)
C9_2 C 0.6151(5) 0.03168(14) 0.1260(2)
H8_2 H 0.560492 0.031871 0.167710
C10_2 C 0.1683(4) 0.20409(12) 0.17586(18)
H9_2 H 0.073320 0.198436 0.146884
C11_2 C 0.4202(5) 0.20407(16) 0.2158(2)
H10_2 H 0.532105 0.198704 0.221280
C12_2 C 0.3315(5) 0.22817(16) 0.2601(2)
H11_2 H 0.373270 0.242960 0.301569
Cu1_7 Cu 1.000000 0.000000 1.000000
N5_2 N 0.1039(4) 0.19150(10) 0.82467(15)
N6_2 N 0.2366(4) 0.15363(10) 0.91101(15)
C1_2 C 0.4013(4) 0.10429(12) 0.99005(19)
H3_2 H 0.417575 0.084586 0.952086
C6_2 C 0.3056(4) 0.14309(12) 0.97982(18)
H6_2 H 0.692612 0.059108 0.974355
C13_2 C 0.1491(5) 0.19057(13) 0.89176(19)
H12_2 H 0.123004 0.213511 0.923646
C14_2 C 0.1595(8) 0.15211(17) 0.7983(2)
H13_2 H 0.143674 0.142713 0.750778
C15_2 C 0.2395(8) 0.12890(18) 0.8495(2)
H14_2 H 0.289712 0.100434 0.844672
H28_2 H 0.940081 0.081522 0.950290
H41_2 H 0.793907 0.023486 0.789135
C57_2 C 0.7525(5) 0.00085(13) 0.68818(19)
H42_2 H 0.727334 0.029622 0.668350
N16_2 N 0.7673(4) 0.00661(11) 0.53173(17)
C62_2 C 0.7415(4) 0.01143(12) 0.45861(17)
C71_2 C 0.7843(4) 0.05509(12) 0.42420(17)
C72_2 C 0.6985(5) 0.07062(13) 0.3625(2)
H49_2 H 0.615243 0.052480 0.341005
C73_2 C 0.7335(5) 0.11225(14) 0.3323(2)
H50_2 H 0.674851 0.121559 0.290286
C74_2 C 0.8532(5) 0.14020(12) 0.36295(18)
C75_2 C 0.9374(5) 0.12557(12) 0.42503(18)
C76_2 C 0.9049(4) 0.08335(12) 0.45434(17)
H52_2 H 0.965983 0.073738 0.495520
C77_2 C 0.8933(4) 0.18468(11) 0.32991(18)
Cu1_8 Cu 1.000000 1.000000 1.000000
O8_2 O 0.8725(3) 0.98789(9) 0.90545(12)
O9_2 O 0.9328(3) 0.91381(9) 0.89262(12)
C55_2 C 0.8270(4) 0.95513(12) 0.79120(17)
C56_2 C 0.7916(5) 0.99719(13) 0.76065(19)
C58_2 C 0.7500(4) 0.96239(12) 0.64416(17)
C59_2 C 0.7796(5) 0.91999(12) 0.67637(18)
H43_2 H 0.773190 0.893417 0.648502
C60_2 C 0.8179(5) 0.91648(12) 0.74816(18)
H44_2 H 0.838311 0.887588 0.768481
C61_2 C 0.7193(4) 0.96673(12) 0.56587(17)
N17_2 N 0.6670(4) 0.97597(12) 0.41854(17)
C63_2 C 0.6178(4) 0.93617(12) 0.45136(17)
N18_2 N 0.6453(4) 0.93143(11) 0.52546(17)
C64_2 C 0.5260(5) 0.90066(12) 0.40964(17)
C65_2 C 0.5506(5) 0.89211(14) 0.33810(19)
H45_2 H 0.633200 0.907588 0.316715
C66_2 C 0.4547(5) 0.86121(14) 0.29892(19)
H46_2 H 0.473466 0.855855 0.251309
C67_2 C 0.3319(5) 0.83812(12) 0.32866(18)
C68_2 C 0.3074(5) 0.84614(14) 0.3995(2)
H47_2 H 0.224043 0.830788 0.420596
C69_2 C 0.4041(5) 0.87636(14) 0.4389(2)
H48_2 H 0.387157 0.880664 0.486994
C70_2 C 0.2218(5) 0.80681(12) 0.28559(19)
C78_2 C 0.8817(4) 0.95160(12) 0.86941(17)
H25 H 0.017349 0.355580 0.947535
H51 H 0.982651 0.644420 0.052465
Cu1_9 Cu 0.000000 0.000000 1.000000
O14_2 O 0.0250(3) 0.06898(9) 0.96849(12)
H33_2 H 0.205825 0.015148 0.855746
H51_2 H 0.017349 0.144420 0.447535
Cu1_10 Cu 1.000000 1.000000 0.000000
O7_2 O 0.9750(3) 0.93102(9) 0.03151(12)
H7_2 H 0.794175 0.984852 0.144254
H25_2 H 0.982651 0.855580 0.552465
loop_
_geom_bond_atom_site_label_1
_geom_bond_atom_site_label_2
_geom_bond_site_symmetry_1
_geom_bond_site_symmetry_2
O15 Cu2 1_555 1_555
O17 Cu2 1_555 1_555
O19 Cu2 1_555 1_555
O21 Cu2 1_555 1_555
O10 C70 1_555 1_555
O11 C70 1_555 1_555
O12 C77 1_555 1_555
O13 C77 1_555 1_555
N17 C62 1_555 1_555
C63 N17 1_555 1_555
C64 C63 1_555 1_555
C65 C64 1_555 1_555
H45 C65 1_555 1_555
C66 C65 1_555 1_555
H46 C66 1_555 1_555
C67 C66 1_555 1_555
C68 C67 1_555 1_555
H47 C68 1_555 1_555
C69 C64 1_555 1_555
H48 C69 1_555 1_555
C70 C67 1_555 1_555
C71 C62 1_555 1_555
C72 C71 1_555 1_555
H49 C72 1_555 1_555
C73 C72 1_555 1_555
H50 C73 1_555 1_555
C74 C73 1_555 1_555
C75 C74 1_555 1_555
C76 C71 1_555 1_555
H52 C76 1_555 1_555
C77 C74 1_555 1_555
Cu7 O10 1_555 1_555
Cu9 O12 1_555 1_555
O11 Cu7 1_555 1_555
O13 Cu9 1_555 1_555
C68 C69 1_555 1_555
C75 C76 1_555 1_555
Cu1 N1 1_555 1_555
N1 C7 1_555 1_555
N2 C2 1_555 1_555
N3 C10 1_555 1_555
N4 C4 1_555 1_555
N5 C13 1_555 1_555
N6 C6 1_555 1_555
O7 Cu1 1_555 1_555
C1 H3 1_555 1_555
C2 C1 1_555 1_555
C3 C2 1_555 1_555
H4 C3 1_555 1_555
C4 C3 1_555 1_555
C5 C4 1_555 1_555
H5 C5 1_555 1_555
C6 C1 1_555 1_555
C7 N2 1_555 1_555
H6 C7 1_555 1_555
C8 N1 1_555 1_555
H7 C8 1_555 1_555
C9 N2 1_555 1_555
H8 C9 1_555 1_555
C10 N4 1_555 1_555
H9 C10 1_555 1_555
C11 N4 1_555 1_555
H10 C11 1_555 1_555
C12 N3 1_555 1_555
H11 C12 1_555 1_555
C13 N6 1_555 1_555
H12 C13 1_555 1_555
C14 N5 1_555 1_555
H13 C14 1_555 1_555
C15 N6 1_555 1_555
H14 C15 1_555 1_555
O8 Cu1 1_555 1_555
O9 C78 1_555 1_555
C55 C56 1_555 1_555
C56 H41 1_555 1_555
C57 C56 1_555 1_555
H42 C57 1_555 1_555
C58 C57 1_555 1_555
C59 C58 1_555 1_555
H43 C59 1_555 1_555
C60 C55 1_555 1_555
H44 C60 1_555 1_555
C61 C58 1_555 1_555
N16 C61 1_555 1_555
N18 C61 1_555 1_555
C78 O8 1_555 1_555
C5 C6 1_555 1_555
C8 C9 1_555 1_555
C11 C12 1_555 1_555
C14 C15 1_555 1_555
C55 C78 1_555 1_555
C59 C60 1_555 1_555
O1 Cu1_2 1_555 1_555
O2 C39 1_555 1_555
C16 C17 1_555 1_555
C17 H15 1_555 1_555
C18 C17 1_555 1_555
H16 C18 1_555 1_555
C19 C18 1_555 1_555
C20 C19 1_555 1_555
H17 C20 1_555 1_555
C21 C16 1_555 1_555
H18 C21 1_555 1_555
C22 C19 1_555 1_555
N7 C22 1_555 1_555
N9 C22 1_555 1_555
C39 O1 1_555 1_555
N10 Cu1_2 1_555 1_555
N11 C41 1_555 1_555
N12 C49 1_555 1_555
N13 C43 1_555 1_555
N14 C52 1_555 1_555
N15 C45 1_555 1_555
O14 Cu1_2 1_555 1_555
C40 H29 1_555 1_555
C41 C40 1_555 1_555
C42 C41 1_555 1_555
H30 C42 1_555 1_555
C43 C42 1_555 1_555
C44 C43 1_555 1_555
H31 C44 1_555 1_555
C45 C40 1_555 1_555
C46 N10 1_555 1_555
H32 C46 1_555 1_555
C47 N10 1_555 1_555
H33 C47 1_555 1_555
C48 N11 1_555 1_555
H34 C48 1_555 1_555
C49 N13 1_555 1_555
H35 C49 1_555 1_555
C50 N13 1_555 1_555
H36 C50 1_555 1_555
C51 N12 1_555 1_555
H37 C51 1_555 1_555
C52 N15 1_555 1_555
H38 C52 1_555 1_555
C53 N14 1_555 1_555
H39 C53 1_555 1_555
C54 N15 1_555 1_555
H40 C54 1_555 1_555
C16 C39 1_555 1_555
C20 C21 1_555 1_555
N11 C46 1_555 1_555
C44 C45 1_555 1_555
C47 C48 1_555 1_555
C50 C51 1_555 1_555
C53 C54 1_555 1_555
O15 C31 1_555 1_555
O17 C31 1_555 1_555
O5 C38 1_555 1_555
O6 C38 1_555 1_555
N8 C23 1_555 1_555
C24 N8 1_555 1_555
C25 C24 1_555 1_555
C26 C25 1_555 1_555
H19 C26 1_555 1_555
C27 C26 1_555 1_555
H20 C27 1_555 1_555
C28 C27 1_555 1_555
C29 C28 1_555 1_555
H21 C29 1_555 1_555
C30 C25 1_555 1_555
H22 C30 1_555 1_555
C31 C28 1_555 1_555
C32 C23 1_555 1_555
C33 C32 1_555 1_555
H23 C33 1_555 1_555
C34 C33 1_555 1_555
H24 C34 1_555 1_555
C35 C34 1_555 1_555
C36 C35 1_555 1_555
C37 C32 1_555 1_555
H26 C37 1_555 1_555
C38 C35 1_555 1_555
Cu6 O5 1_555 1_555
O6 Cu6 1_555 1_555
C29 C30 1_555 1_555
C36 C37 1_555 1_555
O20 Cu7 1_555 1_555
O22 Cu7 1_555 1_555
O16 Cu9 1_555 1_555
O18 Cu9 1_555 1_555
O1_2 Cu1_3 1_555 1_555
O2_2 C39_2 1_555 1_555
O3 C31_2 1_555 1_555
O4 C31_2 1_555 1_555
C16_2 C17_2 1_555 1_555
C20_2 C19_2 1_555 1_555
H17_2 C20_2 1_555 1_555
C21_2 C16_2 1_555 1_555
H18_2 C21_2 1_555 1_555
C22_2 C19_2 1_555 1_555
C24_2 N8_2 1_555 1_555
N9_2 C22_2 1_555 1_555
C25_2 C24_2 1_555 1_555
C26_2 C25_2 1_555 1_555
H19_2 C26_2 1_555 1_555
C27_2 C26_2 1_555 1_555
H20_2 C27_2 1_555 1_555
C28_2 C27_2 1_555 1_555
C29_2 C28_2 1_555 1_555
H21_2 C29_2 1_555 1_555
C30_2 C25_2 1_555 1_555
H22_2 C30_2 1_555 1_555
C31_2 C28_2 1_555 1_555
C39_2 O1_2 1_555 1_555
Cu6 O3 1_555 1_555
O4 Cu6 1_555 1_555
C16_2 C39_2 1_555 1_555
C20_2 C21_2 1_555 1_555
C24_2 N9_2 1_555 1_555
C29_2 C30_2 1_555 1_555
O19 C38_2 1_555 1_555
O21 C38_2 1_555 1_555
H16_2 C18_2 1_555 1_555
C23_2 N7_2 1_555 1_555
C32_2 C23_2 1_555 1_555
C33_2 C32_2 1_555 1_555
H23_2 C33_2 1_555 1_555
C34_2 C33_2 1_555 1_555
H24_2 C34_2 1_555 1_555
C35_2 C34_2 1_555 1_555
C36_2 C35_2 1_555 1_555
C37_2 C32_2 1_555 1_555
H26_2 C37_2 1_555 1_555
C38_2 C35_2 1_555 1_555
N14_2 C52_2 1_555 1_555
N15_2 C45_2 1_555 1_555
C40_2 H29_2 1_555 1_555
C45_2 C40_2 1_555 1_555
C52_2 N15_2 1_555 1_555
H38_2 C52_2 1_555 1_555
C53_2 N14_2 1_555 1_555
H39_2 C53_2 1_555 1_555
C54_2 N15_2 1_555 1_555
H40_2 C54_2 1_555 1_555
C36_2 C37_2 1_555 1_555
C53_2 C54_2 1_555 1_555
N10_2 Cu1_5 1_555 1_555
N11_2 C41_2 1_555 1_555
N20 C49_2 1_555 1_555
N13_2 C43_2 1_555 1_555
C42_2 C41_2 1_555 1_555
H30_2 C42_2 1_555 1_555
C43_2 C42_2 1_555 1_555
C44_2 C43_2 1_555 1_555
H31_2 C44_2 1_555 1_555
C46_2 N10_2 1_555 1_555
C47_2 N10_2 1_555 1_555
C48_2 N11_2 1_555 1_555
H34_2 C48_2 1_555 1_555
C49_2 N13_2 1_555 1_555
H35_2 C49_2 1_555 1_555
C50_2 N13_2 1_555 1_555
H36_2 C50_2 1_555 1_555
C51_2 N20 1_555 1_555
H37_2 C51_2 1_555 1_555
N11_2 C46_2 1_555 1_555
C47_2 C48_2 1_555 1_555
C50_2 C51_2 1_555 1_555
Cu1_6 N1_2 1_555 1_555
N1_2 C7_2 1_555 1_555
N2_2 C2_2 1_555 1_555
N19 C10_2 1_555 1_555
N4_2 C4_2 1_555 1_555
C3_2 C2_2 1_555 1_555
H4_2 C3_2 1_555 1_555
C4_2 C3_2 1_555 1_555
C5_2 C4_2 1_555 1_555
H5_2 C5_2 1_555 1_555
C7_2 N2_2 1_555 1_555
C8_2 N1_2 1_555 1_555
C9_2 N2_2 1_555 1_555
H8_2 C9_2 1_555 1_555
C10_2 N4_2 1_555 1_555
H9_2 C10_2 1_555 1_555
C11_2 N4_2 1_555 1_555
H10_2 C11_2 1_555 1_555
C12_2 N19 1_555 1_555
H11_2 C12_2 1_555 1_555
C8_2 C9_2 1_555 1_555
C11_2 C12_2 1_555 1_555
N5_2 C13_2 1_555 1_555
N6_2 C6_2 1_555 1_555
C1_2 H3_2 1_555 1_555
C6_2 C1_2 1_555 1_555
C13_2 N6_2 1_555 1_555
H12_2 C13_2 1_555 1_555
C14_2 N5_2 1_555 1_555
H13_2 C14_2 1_555 1_555
C15_2 N6_2 1_555 1_555
H14_2 C15_2 1_555 1_555
O20 C77_2 1_555 1_555
O22 C77_2 1_555 1_555
H42_2 C57_2 1_555 1_555
C62_2 N16_2 1_555 1_555
C71_2 C62_2 1_555 1_555
C72_2 C71_2 1_555 1_555
H49_2 C72_2 1_555 1_555
C73_2 C72_2 1_555 1_555
H50_2 C73_2 1_555 1_555
C74_2 C73_2 1_555 1_555
C75_2 C74_2 1_555 1_555
C76_2 C71_2 1_555 1_555
H52_2 C76_2 1_555 1_555
C77_2 C74_2 1_555 1_555
C14_2 C15_2 1_555 1_555
C75_2 C76_2 1_555 1_555
O8_2 Cu1_8 1_555 1_555
O9_2 C78_2 1_555 1_555
O16 C70_2 1_555 1_555
O18 C70_2 1_555 1_555
C55_2 C56_2 1_555 1_555
C59_2 C58_2 1_555 1_555
H43_2 C59_2 1_555 1_555
C60_2 C55_2 1_555 1_555
H44_2 C60_2 1_555 1_555
C61_2 C58_2 1_555 1_555
C63_2 N17_2 1_555 1_555
N18_2 C61_2 1_555 1_555
C64_2 C63_2 1_555 1_555
C65_2 C64_2 1_555 1_555
H45_2 C65_2 1_555 1_555
C66_2 C65_2 1_555 1_555
H46_2 C66_2 1_555 1_555
C67_2 C66_2 1_555 1_555
C68_2 C67_2 1_555 1_555
H47_2 C68_2 1_555 1_555
C69_2 C64_2 1_555 1_555
H48_2 C69_2 1_555 1_555
C70_2 C67_2 1_555 1_555
C78_2 O8_2 1_555 1_555
C55_2 C78_2 1_555 1_555
C59_2 C60_2 1_555 1_555
C63_2 N18_2 1_555 1_555
C68_2 C69_2 1_555 1_555
O14_2 Cu1_9 1_555 1_555
O7_2 Cu1_10 1_555 1_555

#END
