
###############################################################################
#
# This file contains modified crystal structure data generated from the
# MOF subset of the Cambridge Structural Database (CSD) v542 
# hosted by the Cambridge Crystallographic Data Centre (CCDC).
#
# This work is licensed under the Creative Commons
# Attribution-NonCommercial-ShareAlike 4.0 International License.
# To view a copy of this license, visit
# http://creativecommons.org/licenses/by-nc-sa/4.0/
# or send a letter to
# Creative Commons, PO Box 1866, Mountain View, CA 94042, USA.
#
# CIF created using the CSD Python API on 22 February 2021
# The structure has been converted into the P1 space group
# The structure has a 3D framework
# The original CSD entry ZUVCIF is in the monoclinic crystal system
# The framework has been calculated to contain at least 10.0% void space
# The void calculation uses a probe of radius 1.32A, grid spacing 0.4
#
###############################################################################

data_ZUVCIF
_chemical_formula_moiety         '(C52 H32 Co14 N28 O36)n'
_symmetry_cell_setting           triclinic
_symmetry_space_group_name_H-M   'P 1'
_symmetry_Int_Tables_number      1
_space_group_name_Hall           'P 1'
loop_
_symmetry_equiv_pos_site_id
_symmetry_equiv_pos_as_xyz
1 x,y,z
_cell_length_a                   11.34510(11)
_cell_length_b                   18.02300(9)
_cell_length_c                   12.3540(4)
_cell_angle_alpha                90
_cell_angle_beta                 108.4125(13)
_cell_angle_gamma                90
_cell_volume                     2396.74
loop_
_atom_site_label
_atom_site_type_symbol
_atom_site_fract_x
_atom_site_fract_y
_atom_site_fract_z
Co11 Co -0.000000 0.500000 0.000000
Co11_2 Co -0.000000 0.500000 1.000000
Co9 Co 0.73372(5) 0.52185(3) 0.09090(4)
Co11_3 Co 1.000000 0.500000 0.000000
O20 O 0.3586(3) 0.5130(2) 0.0597(3)
Co1 Co 0.26628(5) 0.47815(3) 0.90910(4)
Co3 Co 0.08274(5) 0.32756(3) 0.44060(4)
O1 O 0.3680(3) 0.47683(19) 0.8106(3)
O2 O 0.4542(3) 0.37335(19) 0.8929(3)
O3 O 0.6414(3) 0.4870(2) 0.9403(3)
O4 O 0.8162(3) 0.4726(2) 0.8967(3)
O5 O 0.2509(3) 0.3645(2) 0.4856(3)
H1 H 0.046217 0.343894 0.629448
O7 O 0.2731(4) 0.3386(3) 0.6647(3)
N3 N 0.0004(4) 0.3836(2) 0.3013(3)
C2 C 0.0500(4) 0.4039(3) 0.2205(4)
H4 H 0.128729 0.389683 0.220176
C5 C 0.3125(5) 0.3636(3) 0.5912(4)
C6 C 0.4411(4) 0.3951(3) 0.6216(4)
C7 C 0.4970(4) 0.3993(3) 0.5373(4)
H7 H 0.454582 0.384096 0.463270
C8 C 0.6168(4) 0.4263(3) 0.5648(4)
C9 C 0.6827(4) 0.4478(3) 0.6714(4)
H8 H 0.764056 0.464473 0.687756
C10 C 0.6265(4) 0.4446(3) 0.7565(4)
C11 C 0.5038(4) 0.4198(3) 0.7310(3)
C12 C 0.4375(4) 0.4217(3) 0.8203(4)
C13 C 0.7018(4) 0.4700(3) 0.8739(4)
O8 O 0.7762(4) 0.4600(3) 0.4979(4)
N7 N 0.6737(4) 0.4310(3) 0.4750(4)
O9 O 0.6189(4) 0.4074(3) 0.3820(3)
H13 H 0.052403 0.677595 0.030804
Co11_4 Co 1.000000 0.500000 1.000000
O22 O 0.1838(3) 0.5274(2) 0.1033(3)
N16 N 0.1293(4) 0.5459(2) 0.8261(3)
N17 N 0.1728(4) 0.3897(2) 0.9249(3)
N20 N 0.0918(4) 0.2195(2) 0.4274(3)
N4 N 0.0661(4) 0.3985(2) 0.9529(3)
N6 N 0.0918(4) 0.2805(2) 0.9274(3)
C3 C 0.0207(5) 0.3324(3) 0.9531(5)
C4 C 0.1858(5) 0.3190(3) 0.9102(4)
H6 H 0.251038 0.297999 0.890388
O15 O 0.0046(5) 0.6549(3) 0.4460(4)
N9 N 0.0247(3) 0.5541(2) 0.8576(3)
C14 C 0.1105(4) 0.5833(3) 0.7318(4)
H11 H 0.167703 0.586574 0.692144
Co13 Co 0.08274(5) 0.17244(3) 0.94060(4)
O6 O 0.9954(5) 0.3451(3) 0.5540(4)
N1 N 0.8707(4) 0.4541(2) 0.1739(3)
N2 N 0.9753(3) 0.4459(2) 0.1424(3)
C1 C 0.8895(4) 0.4167(3) 0.2682(4)
H3 H 0.832297 0.413426 0.307856
N11 N 0.9339(4) 0.6015(2) 0.0471(3)
N12 N 0.8272(4) 0.6103(2) 0.0751(3)
N13 N 0.9082(4) 0.7195(2) 0.0726(3)
C16 C 0.9793(5) 0.6676(3) 0.0469(5)
C17 C 0.8142(5) 0.6810(3) 0.0898(4)
H14 H 0.748962 0.702001 0.109612
Co12 Co 0.91726(5) 0.82756(3) 0.05940(4)
H5 H 0.947597 0.322405 0.969196
Co5 Co 0.91726(5) 0.67244(3) 0.55940(4)
O10 O 0.6320(3) 0.52317(19) 0.1894(3)
O11 O 0.5458(3) 0.62665(19) 0.1071(3)
O14 O 0.7491(3) 0.6355(2) 0.5144(3)
H9 H 0.953783 0.656106 0.370552
O16 O 0.7269(4) 0.6614(3) 0.3353(3)
N10 N 0.9996(4) 0.6164(2) 0.6987(3)
C15 C 0.9500(4) 0.5961(3) 0.7795(4)
H12 H 0.871271 0.610317 0.779824
C18 C 0.6875(5) 0.6364(3) 0.4088(4)
C19 C 0.5589(4) 0.6049(3) 0.3784(4)
C20 C 0.5030(4) 0.6007(3) 0.4627(4)
H15 H 0.545418 0.615904 0.536730
C21 C 0.3832(4) 0.5737(3) 0.4352(4)
C22 C 0.3173(4) 0.5522(3) 0.3286(4)
H16 H 0.235944 0.535527 0.312244
C23 C 0.3735(4) 0.5554(3) 0.2435(4)
C24 C 0.4962(4) 0.5802(3) 0.2690(3)
C25 C 0.5625(4) 0.5783(3) 0.1797(4)
C26 C 0.2982(4) 0.5300(3) 0.1261(4)
O17 O 0.2238(4) 0.5400(3) 0.5021(4)
N14 N 0.3263(4) 0.5690(3) 0.5250(4)
O18 O 0.3811(4) 0.5926(3) 0.6180(3)
N19 N 0.9082(4) 0.7805(2) 0.5726(3)
Co10 Co 0.000000 0.000000 0.500000
Co10_2 Co -0.000000 1.000000 0.500000
Co4 Co 0.26628(5) 0.02185(3) 0.40910(4)
O10_2 O 0.3680(3) 0.02317(19) 0.3106(3)
O11_2 O 0.4542(3) 0.12665(19) 0.3929(3)
O12 O 0.6414(3) 0.0130(2) 0.4403(3)
O13 O 0.8162(3) 0.0274(2) 0.3967(3)
H9_2 H 0.046217 0.156106 0.129448
O16_2 O 0.2731(4) 0.1614(3) 0.1647(3)
C18_2 C 0.3125(5) 0.1364(3) 0.0912(4)
C19_2 C 0.4411(4) 0.1049(3) 0.1216(4)
C20_2 C 0.4970(4) 0.1007(3) 0.0373(4)
C21_2 C 0.6168(4) 0.0737(3) 0.0648(4)
C22_2 C 0.6827(4) 0.0522(3) 0.1714(4)
H16_2 H 0.764056 0.035527 0.187756
C23_2 C 0.6265(4) 0.0554(3) 0.2565(4)
C24_2 C 0.5038(4) 0.0802(3) 0.2310(3)
C25_2 C 0.4375(4) 0.0783(3) 0.3203(4)
C26_2 C 0.7018(4) 0.0300(3) 0.3739(4)
Co10_3 Co 1.000000 0.000000 0.500000
N18 N 0.1728(4) 0.1103(2) 0.4249(3)
O14_2 O 0.2509(3) 0.1355(2) 0.9856(3)
N10_2 N 0.0004(4) 0.1164(2) 0.8013(3)
N11_2 N 0.0661(4) 0.1015(2) 0.4529(3)
C15_2 C 0.0500(4) 0.0961(3) 0.7205(4)
H12_2 H 0.128729 0.110317 0.720176
C16_2 C 0.0207(5) 0.1676(3) 0.4531(5)
C17_2 C 0.1858(5) 0.1810(3) 0.4102(4)
H14_2 H 0.251038 0.202001 0.390388
H15_2 H 0.454582 0.115904 0.963270
O17_2 O 0.7762(4) 0.0400(3) 0.9979(4)
N14_2 N 0.6737(4) 0.0690(3) 0.9750(4)
O18_2 O 0.6189(4) 0.0926(3) 0.8820(3)
Co6 Co 0.73372(5) 0.97815(3) 0.59090(4)
Co10_4 Co 1.000000 1.000000 0.500000
O19 O 0.3586(3) 0.9870(2) 0.5597(3)
N15 N 0.1293(4) 0.9541(2) 0.3261(3)
N2_2 N 0.0247(3) 0.9459(2) 0.3576(3)
C1_2 C 0.1105(4) 0.9167(3) 0.2318(4)
H3_2 H 0.167703 0.913426 0.192144
H5_2 H 0.052403 0.822405 0.530804
O21 O 0.1838(3) 0.9726(2) 0.6033(3)
N8 N 0.8707(4) 0.0459(2) 0.6739(3)
N9_2 N 0.9753(3) 0.0541(2) 0.6424(3)
C14_2 C 0.8895(4) 0.0833(3) 0.7682(4)
H11_2 H 0.832297 0.086574 0.807856
H13_2 H 0.947597 0.177595 0.469196
O5_2 O 0.7491(3) 0.8645(2) 0.0144(3)
N3_2 N 0.9996(4) 0.8836(2) 0.1987(3)
N4_2 N 0.9339(4) 0.8985(2) 0.5471(3)
N5 N 0.8272(4) 0.8897(2) 0.5751(3)
C2_2 C 0.9500(4) 0.9039(3) 0.2795(4)
H4_2 H 0.871271 0.889683 0.279824
C3_2 C 0.9793(5) 0.8324(3) 0.5469(5)
C4_2 C 0.8142(5) 0.8190(3) 0.5898(4)
H6_2 H 0.748962 0.797999 0.609612
H7_2 H 0.545418 0.884096 0.036730
O8_2 O 0.2238(4) 0.9600(3) 0.0021(4)
N7_2 N 0.3263(4) 0.9310(3) 0.0250(4)
O9_2 O 0.3811(4) 0.9074(3) 0.1180(3)
O1_2 O 0.6320(3) 0.97683(19) 0.6894(3)
O2_2 O 0.5458(3) 0.87335(19) 0.6071(3)
H1_2 H 0.953783 0.843894 0.870552
O7_2 O 0.7269(4) 0.8386(3) 0.8353(3)
C5_2 C 0.6875(5) 0.8636(3) 0.9088(4)
C6_2 C 0.5589(4) 0.8951(3) 0.8784(4)
C7_2 C 0.5030(4) 0.8993(3) 0.9627(4)
C8_2 C 0.3832(4) 0.9263(3) 0.9352(4)
C9_2 C 0.3173(4) 0.9478(3) 0.8286(4)
H8_2 H 0.235944 0.964473 0.812244
C10_2 C 0.3735(4) 0.9446(3) 0.7435(4)
C11_2 C 0.4962(4) 0.9198(3) 0.7690(3)
C12_2 C 0.5625(4) 0.9217(3) 0.6797(4)
C13_2 C 0.2982(4) 0.9700(3) 0.6261(4)
O6_2 O 0.0046(5) 0.8451(3) 0.9460(4)
O15_2 O 0.9954(5) 0.1549(3) 0.0540(4)
loop_
_geom_bond_atom_site_label_1
_geom_bond_atom_site_label_2
_geom_bond_site_symmetry_1
_geom_bond_site_symmetry_2
Co1 O1 1_555 1_555
Co3 O5 1_555 1_555
O1 C12 1_555 1_555
O2 C12 1_555 1_555
O3 C13 1_555 1_555
O4 C13 1_555 1_555
O5 C5 1_555 1_555
O7 C5 1_555 1_555
N3 Co3 1_555 1_555
C2 N3 1_555 1_555
H4 C2 1_555 1_555
C5 C6 1_555 1_555
C6 C7 1_555 1_555
C7 H7 1_555 1_555
C8 C7 1_555 1_555
C9 C8 1_555 1_555
H8 C9 1_555 1_555
C10 C9 1_555 1_555
C11 C6 1_555 1_555
C12 C11 1_555 1_555
C13 C10 1_555 1_555
O8 N7 1_555 1_555
N7 C8 1_555 1_555
O9 N7 1_555 1_555
Co11_4 O4 1_555 1_555
O22 Co11 1_555 1_555
N16 Co1 1_555 1_555
N17 Co1 1_555 1_555
N20 Co3 1_555 1_555
C10 C11 1_555 1_555
N4 Co11_2 1_555 1_555
N17 N4 1_555 1_555
N6 C3 1_555 1_555
C3 N4 1_555 1_555
C4 N17 1_555 1_555
H6 C4 1_555 1_555
N16 N9 1_555 1_555
N9 Co11_2 1_555 1_555
C14 N16 1_555 1_555
H11 C14 1_555 1_555
Co13 N6 1_555 1_555
N6 C4 1_555 1_555
Co11_3 N2 1_555 1_555
N1 N2 1_555 1_555
C1 N1 1_555 1_555
H3 C1 1_555 1_555
N11 Co11_3 1_555 1_555
N12 N11 1_555 1_555
N13 C16 1_555 1_555
C16 N11 1_555 1_555
C17 N12 1_555 1_555
H14 C17 1_555 1_555
Co9 N1 1_555 1_555
Co12 N13 1_555 1_555
N12 Co9 1_555 1_555
N13 C17 1_555 1_555
Co9 O10 1_555 1_555
Co5 O14 1_555 1_555
O10 C25 1_555 1_555
O11 C25 1_555 1_555
O20 C26 1_555 1_555
O22 C26 1_555 1_555
O14 C18 1_555 1_555
O16 C18 1_555 1_555
N10 Co5 1_555 1_555
H12 C15 1_555 1_555
C18 C19 1_555 1_555
C19 C20 1_555 1_555
C20 H15 1_555 1_555
C21 C20 1_555 1_555
C22 C21 1_555 1_555
H16 C22 1_555 1_555
C23 C22 1_555 1_555
C24 C19 1_555 1_555
C25 C24 1_555 1_555
C26 C23 1_555 1_555
O17 N14 1_555 1_555
N14 C21 1_555 1_555
O18 N14 1_555 1_555
N19 Co5 1_555 1_555
N10 C15 1_555 1_555
C23 C24 1_555 1_555
Co4 O10_2 1_555 1_555
O10_2 C25_2 1_555 1_555
O11_2 C25_2 1_555 1_555
O12 C26_2 1_555 1_555
O13 C26_2 1_555 1_555
O16_2 C18_2 1_555 1_555
C18_2 C19_2 1_555 1_555
C19_2 C20_2 1_555 1_555
C21_2 C20_2 1_555 1_555
C22_2 C21_2 1_555 1_555
H16_2 C22_2 1_555 1_555
C23_2 C22_2 1_555 1_555
C24_2 C19_2 1_555 1_555
C25_2 C24_2 1_555 1_555
C26_2 C23_2 1_555 1_555
Co10_3 O13 1_555 1_555
N18 Co4 1_555 1_555
C23_2 C24_2 1_555 1_555
Co13 O14_2 1_555 1_555
N10_2 Co13 1_555 1_555
N11_2 Co10 1_555 1_555
N18 N11_2 1_555 1_555
N20 C16_2 1_555 1_555
H12_2 C15_2 1_555 1_555
C16_2 N11_2 1_555 1_555
C17_2 N18 1_555 1_555
H14_2 C17_2 1_555 1_555
O17_2 N14_2 1_555 1_555
O18_2 N14_2 1_555 1_555
N10_2 C15_2 1_555 1_555
N20 C17_2 1_555 1_555
Co10_2 N2_2 1_555 1_555
N15 N2_2 1_555 1_555
C1_2 N15 1_555 1_555
H3_2 C1_2 1_555 1_555
O21 Co10_2 1_555 1_555
N8 N9_2 1_555 1_555
N9_2 Co10_3 1_555 1_555
C14_2 N8 1_555 1_555
H11_2 C14_2 1_555 1_555
Co12 O5_2 1_555 1_555
N3_2 Co12 1_555 1_555
N4_2 Co10_4 1_555 1_555
N5 N4_2 1_555 1_555
N19 C3_2 1_555 1_555
C2_2 N3_2 1_555 1_555
H4_2 C2_2 1_555 1_555
C3_2 N4_2 1_555 1_555
C4_2 N5 1_555 1_555
H6_2 C4_2 1_555 1_555
O8_2 N7_2 1_555 1_555
O9_2 N7_2 1_555 1_555
Co6 N5 1_555 1_555
N19 C4_2 1_555 1_555
Co6 O1_2 1_555 1_555
O1_2 C12_2 1_555 1_555
O2_2 C12_2 1_555 1_555
O19 C13_2 1_555 1_555
O21 C13_2 1_555 1_555
O7_2 C5_2 1_555 1_555
C5_2 C6_2 1_555 1_555
C6_2 C7_2 1_555 1_555
C8_2 C7_2 1_555 1_555
C9_2 C8_2 1_555 1_555
H8_2 C9_2 1_555 1_555
C10_2 C9_2 1_555 1_555
C11_2 C6_2 1_555 1_555
C12_2 C11_2 1_555 1_555
C13_2 C10_2 1_555 1_555
C10_2 C11_2 1_555 1_555

#END
