
#######################################################################
#
#                 Cambridge Crystallographic Data Centre
#                                CCDC 
#
#######################################################################
#
# If this CIF has been generated from an entry in the Cambridge 
# Structural Database, then it will include bibliographic, chemical, 
# crystal, experimental, refinement or atomic coordinate data resulting 
# from the CCDC's data processing and validation procedures.
#
#######################################################################

data_CUBFOX
_chemical_name_common            DMOF-TM
_chemical_formula_moiety         '(C30 H36 N2 O8 Zn2)n,1.78n(H2 O1)'
_chemical_name_systematic        
'catena-((\m-1,4-diazabicyclo[2.2.2]octane)-bis(\m-2,3,5,6-tetramethylterepthalato)-di-zinc hydrate unknown solvate)'
_symmetry_cell_setting           tetragonal
_symmetry_space_group_name_H-M   'P 4/n b m'
_symmetry_Int_Tables_number      125
_space_group_name_Hall           '-P 4a 2b'
loop_
_symmetry_equiv_pos_site_id
_symmetry_equiv_pos_as_xyz
1 x,y,z
2 1/2-x,1/2-y,z
3 1/2-y,x,z
4 y,1/2-x,z
5 1/2-x,y,-z
6 x,1/2-y,-z
7 y,x,-z
8 1/2-y,1/2-x,-z
9 -x,-y,-z
10 1/2+x,1/2+y,-z
11 1/2+y,-x,-z
12 -y,1/2+x,-z
13 1/2+x,-y,z
14 -x,1/2+y,z
15 -y,-x,z
16 1/2+y,1/2+x,z
_cell_length_a                   15.4296(13)
_cell_length_b                   15.4296(13)
_cell_length_c                   9.9198(9)
_cell_angle_alpha                90
_cell_angle_beta                 90
_cell_angle_gamma                90
_cell_volume                     2361.63
_exptl_crystal_colour            colorless
_exptl_crystal_description       plate
_cell_formula_units_Z            2
_exptl_crystal_recrystallization_method 'Solvothermal synthesis'
_exptl_crystal_preparation       
'Flow 3. Experimental details are available from the paper.'
loop_
_atom_site_label
_atom_site_type_symbol
_atom_site_fract_x
_atom_site_fract_y
_atom_site_fract_z
Zn1 Zn 0.750000 0.750000 0.6460(2)
O1 O 0.6740(5) 0.6448(5) 0.6001(15)
N1 N 0.750000 0.750000 0.8565(18)
C1 C 0.5784(4) 0.4897(4) 0.4238(12)
C2 C 0.6333(6) 0.6333(6) 0.500000
C3 C 0.6613(6) 0.4706(6) 0.3573(13)
H1 H 0.687578 0.421061 0.399110
H2 H 0.699200 0.519687 0.365724
H3 H 0.651307 0.458708 0.263600
C4 C 0.5621(5) 0.5621(5) 0.500000
C5 C 0.764(5) 0.654(4) 0.927(4)
C6 C 0.818(4) 0.687(4) 0.930(4)
O1F O 0.6448(5) 0.6740(5) 0.3999(15)
C1F C 0.4897(4) 0.5784(4) 0.5762(12)
C3F C 0.4706(6) 0.6613(6) 0.6427(13)
H1F H 0.421061 0.687578 0.600890
H2F H 0.519687 0.699200 0.634276
H3F H 0.458708 0.651307 0.736400
O1N O 0.3552(5) 0.3260(5) 0.6001(15)
C1N C 0.5103(4) 0.4216(4) 0.4238(12)
C2H C 0.3667(6) 0.3667(6) 0.500000
C3N C 0.5294(6) 0.3387(6) 0.3573(13)
H1N H 0.578939 0.312422 0.399110
H2N H 0.480313 0.300800 0.365724
H3N H 0.541292 0.348693 0.263600
C4H C 0.4379(5) 0.4379(5) 0.500000
O1H O 0.3260(5) 0.3552(5) 0.3999(15)
C1H C 0.4216(4) 0.5103(4) 0.5762(12)
C3H C 0.3387(6) 0.5294(6) 0.6427(13)
H1H H 0.312422 0.578939 0.600890
H2H H 0.300800 0.480313 0.634276
H3H H 0.348693 0.541292 0.736400
C5A C 0.736(5) 0.846(4) 0.927(4)
C6A C 0.682(4) 0.813(4) 0.930(4)
C5B C 0.846(4) 0.764(5) 0.927(4)
C6B C 0.813(4) 0.818(4) 0.930(4)
C5C C 0.654(4) 0.736(5) 0.927(4)
C6C C 0.687(4) 0.682(4) 0.930(4)
N1D N 0.750000 0.750000 1.1435(18)
C5D C 0.736(5) 0.654(4) 1.073(4)
C6D C 0.682(4) 0.687(4) 1.070(4)
C5E C 0.764(5) 0.846(4) 1.073(4)
C6E C 0.818(4) 0.813(4) 1.070(4)
C5F C 0.654(4) 0.764(5) 1.073(4)
C6F C 0.687(4) 0.818(4) 1.070(4)
C5G C 0.846(4) 0.736(5) 1.073(4)
C6G C 0.813(4) 0.682(4) 1.070(4)
O1A O 0.8260(5) 0.8552(5) 0.6001(15)
C1A C 0.9216(4) 1.0103(4) 0.4238(12)
C2A C 0.8667(6) 0.8667(6) 0.500000
C3A C 0.8387(6) 1.0294(6) 0.3573(13)
H1A H 0.812422 1.078939 0.399110
H2A H 0.800800 0.980313 0.365724
H3A H 0.848693 1.041292 0.263600
C4A C 0.9379(5) 0.9379(5) 0.500000
O1G O 0.8552(5) 0.8260(5) 0.3999(15)
C1G C 1.0103(4) 0.9216(4) 0.5762(12)
C3G C 1.0294(6) 0.8387(6) 0.6427(13)
H1G H 1.078939 0.812422 0.600890
H2G H 0.980313 0.800800 0.634276
H3G H 1.041292 0.848693 0.736400
O1O O 1.1448(5) 1.1740(5) 0.6001(15)
C1O C 0.9897(4) 1.0784(4) 0.4238(12)
C2I C 1.1333(6) 1.1333(6) 0.500000
C3O C 0.9706(6) 1.1613(6) 0.3573(13)
H1O H 0.921061 1.187578 0.399110
H2O H 1.019687 1.199200 0.365724
H3O H 0.958708 1.151307 0.263600
C4I C 1.0621(5) 1.0621(5) 0.500000
O1I O 1.1740(5) 1.1448(5) 0.3999(15)
C1I C 1.0784(4) 0.9897(4) 0.5762(12)
C3I C 1.1613(6) 0.9706(6) 0.6427(13)
H1I H 1.187578 0.921061 0.600890
H2I H 1.199200 1.019687 0.634276
H3I H 1.151307 0.958708 0.736400
Zn1D Zn 0.750000 0.750000 0.3540(2)
Zn1D_2 Zn 0.750000 0.750000 1.3540(2)
Zn1H Zn 0.250000 0.250000 0.3540(2)
Zn1H_2 Zn 1.250000 1.250000 0.3540(2)
Zn1L Zn 0.250000 0.250000 0.6460(2)
Zn1L_2 Zn 1.250000 1.250000 0.6460(2)
O1B O 0.8552(5) 0.6740(5) 0.6001(15)
O1C O 0.6448(5) 0.8260(5) 0.6001(15)
O1D O 0.8260(5) 0.6448(5) 0.3999(15)
O1E O 0.6740(5) 0.8552(5) 0.3999(15)
N1D_2 N 0.750000 0.750000 0.1435(18)
O2? O 0.673(5) 0.632(4) 0.647(5)
loop_
_geom_bond_atom_site_label_1
_geom_bond_atom_site_label_2
_geom_bond_site_symmetry_1
_geom_bond_site_symmetry_2
Zn1 O1 1_555 1_555
O1 C2 1_555 1_555
N1 Zn1 1_555 1_555
C1 C3 1_555 1_555
C2 C4 1_555 1_555
C3 H1 1_555 1_555
H2 C3 1_555 1_555
H3 C3 1_555 1_555
C4 C1 1_555 1_555
C5 N1 1_555 1_555
C6 N1 1_555 1_555
O1F C2 1_555 1_555
C1F C4 1_555 1_555
C3F C1F 1_555 1_555
H1F C3F 1_555 1_555
H2F C3F 1_555 1_555
H3F C3F 1_555 1_555
O1N C2H 1_555 1_555
C1N C1 1_555 1_555
C2H C4H 1_555 1_555
C3N C1N 1_555 1_555
H1N C3N 1_555 1_555
H2N C3N 1_555 1_555
H3N C3N 1_555 1_555
C4H C1N 1_555 1_555
O1H C2H 1_555 1_555
C1H C1F 1_555 1_555
C3H C1H 1_555 1_555
H1H C3H 1_555 1_555
H2H C3H 1_555 1_555
H3H C3H 1_555 1_555
C5A N1 1_555 1_555
C6A N1 1_555 1_555
C5B N1 1_555 1_555
C6B N1 1_555 1_555
C5C N1 1_555 1_555
C6C N1 1_555 1_555
N1D C5D 1_555 1_555
C5D C5 1_555 1_555
C6D C6C 1_555 1_555
C5E C5A 1_555 1_555
C6E C6B 1_555 1_555
C5F C5C 1_555 1_555
C6F C6A 1_555 1_555
C5G C5B 1_555 1_555
C6G C6 1_555 1_555
O1A Zn1 1_555 1_555
C1A C3A 1_555 1_555
C2A O1A 1_555 1_555
C3A H1A 1_555 1_555
H2A C3A 1_555 1_555
H3A C3A 1_555 1_555
C4A C1A 1_555 1_555
O1G C2A 1_555 1_555
C1G C4A 1_555 1_555
C3G C1G 1_555 1_555
H1G C3G 1_555 1_555
H2G C3G 1_555 1_555
H3G C3G 1_555 1_555
O1O C2I 1_555 1_555
C1O C1A 1_555 1_555
C2I C4I 1_555 1_555
C3O C1O 1_555 1_555
H1O C3O 1_555 1_555
H2O C3O 1_555 1_555
H3O C3O 1_555 1_555
C4I C1O 1_555 1_555
O1I C2I 1_555 1_555
C1I C1G 1_555 1_555
C3I C1I 1_555 1_555
H1I C3I 1_555 1_555
H2I C3I 1_555 1_555
H3I C3I 1_555 1_555
Zn1D O1F 1_555 1_555
Zn1D_2 N1D 1_555 1_555
Zn1H O1H 1_555 1_555
Zn1H_2 O1I 1_555 1_555
Zn1L O1N 1_555 1_555
Zn1L_2 O1O 1_555 1_555
O1B Zn1 1_555 1_555
O1C Zn1 1_555 1_555
O1D Zn1D 1_555 1_555
O1E Zn1D 1_555 1_555
N1D_2 Zn1D 1_555 1_555
C4H C1H 1_555 1_555
N1D C6D 1_555 1_555
N1D C5E 1_555 1_555
N1D C6E 1_555 1_555
N1D C5F 1_555 1_555
N1D C6F 1_555 1_555
N1D C5G 1_555 1_555
N1D C6G 1_555 1_555
C2A C4A 1_555 1_555
O1G Zn1D 1_555 1_555
C4I C1I 1_555 1_555

#END
