
#######################################################################
#
#                 Cambridge Crystallographic Data Centre
#                                CCDC 
#
#######################################################################
#
# If this CIF has been generated from an entry in the Cambridge 
# Structural Database, then it will include bibliographic, chemical, 
# crystal, experimental, refinement or atomic coordinate data resulting 
# from the CCDC's data processing and validation procedures.
#
#######################################################################

data_DOGBEI
_chemical_name_common            PCN224(Ni)
_chemical_formula_moiety         
'3(C48 H24 N4 Ni1 O8 4-),12(Zr1 4+),36(H1 O1 1-),4(H2 O1)'
_chemical_name_systematic        
'Dodeca-zirconium(iv) hexatriacontahydroxide 5,10,15,20-tetrakis(4-carboxylatophenyl)porphyrinato-nickel(ii) tetrahydrate'
_symmetry_cell_setting           cubic
_symmetry_space_group_name_H-M   'I m -3 m'
_symmetry_Int_Tables_number      229
_space_group_name_Hall           '-I 4 2 3'
loop_
_symmetry_equiv_pos_site_id
_symmetry_equiv_pos_as_xyz
1 x,y,z
2 -y,x,z
3 -x,-y,z
4 y,-x,z
5 x,-z,y
6 x,-y,-z
7 x,z,-y
8 z,y,-x
9 -x,y,-z
10 -z,y,x
11 z,x,y
12 y,z,x
13 -y,-z,x
14 z,-x,-y
15 -y,z,-x
16 -z,-x,y
17 -z,x,-y
18 y,-z,-x
19 y,x,-z
20 -y,-x,-z
21 -x,z,y
22 -x,-z,-y
23 z,-y,x
24 -z,-y,-x
25 1/2+x,1/2+y,1/2+z
26 1/2-y,1/2+x,1/2+z
27 1/2-x,1/2-y,1/2+z
28 1/2+y,1/2-x,1/2+z
29 1/2+x,1/2-z,1/2+y
30 1/2+x,1/2-y,1/2-z
31 1/2+x,1/2+z,1/2-y
32 1/2+z,1/2+y,1/2-x
33 1/2-x,1/2+y,1/2-z
34 1/2-z,1/2+y,1/2+x
35 1/2+z,1/2+x,1/2+y
36 1/2+y,1/2+z,1/2+x
37 1/2-y,1/2-z,1/2+x
38 1/2+z,1/2-x,1/2-y
39 1/2-y,1/2+z,1/2-x
40 1/2-z,1/2-x,1/2+y
41 1/2-z,1/2+x,1/2-y
42 1/2+y,1/2-z,1/2-x
43 1/2+y,1/2+x,1/2-z
44 1/2-y,1/2-x,1/2-z
45 1/2-x,1/2+z,1/2+y
46 1/2-x,1/2-z,1/2-y
47 1/2+z,1/2-y,1/2+x
48 1/2-z,1/2-y,1/2-x
49 -x,-y,-z
50 y,-x,-z
51 x,y,-z
52 -y,x,-z
53 -x,z,-y
54 -x,y,z
55 -x,-z,y
56 -z,-y,x
57 x,-y,z
58 z,-y,-x
59 -z,-x,-y
60 -y,-z,-x
61 y,z,-x
62 -z,x,y
63 y,-z,x
64 z,x,-y
65 z,-x,y
66 -y,z,x
67 -y,-x,z
68 y,x,z
69 x,-z,-y
70 x,z,y
71 -z,y,-x
72 z,y,x
73 1/2-x,1/2-y,1/2-z
74 1/2+y,1/2-x,1/2-z
75 1/2+x,1/2+y,1/2-z
76 1/2-y,1/2+x,1/2-z
77 1/2-x,1/2+z,1/2-y
78 1/2-x,1/2+y,1/2+z
79 1/2-x,1/2-z,1/2+y
80 1/2-z,1/2-y,1/2+x
81 1/2+x,1/2-y,1/2+z
82 1/2+z,1/2-y,1/2-x
83 1/2-z,1/2-x,1/2-y
84 1/2-y,1/2-z,1/2-x
85 1/2+y,1/2+z,1/2-x
86 1/2-z,1/2+x,1/2+y
87 1/2+y,1/2-z,1/2+x
88 1/2+z,1/2+x,1/2-y
89 1/2+z,1/2-x,1/2+y
90 1/2-y,1/2+z,1/2+x
91 1/2-y,1/2-x,1/2+z
92 1/2+y,1/2+x,1/2+z
93 1/2+x,1/2-z,1/2-y
94 1/2+x,1/2+z,1/2+y
95 1/2-z,1/2+y,1/2-x
96 1/2+z,1/2+y,1/2+x
_cell_length_a                   38.512(2)
_cell_length_b                   38.512(2)
_cell_length_c                   38.512(2)
_cell_angle_alpha                90
_cell_angle_beta                 90
_cell_angle_gamma                90
_cell_volume                     57120
_exptl_crystal_colour            'dark red'
_exptl_crystal_description       Cubic
_cell_formula_units_Z            4
loop_
_atom_site_label
_atom_site_type_symbol
_atom_site_fract_x
_atom_site_fract_y
_atom_site_fract_z
Zr1 Zr 0.207106(15) 0.271576(17) 0.207106(15)
Ni1 Ni 0.2500 0.5000 0.0000
O1 O 0.22221(9) 0.31474(8) 0.17248(8)
N1 N 0.24990(15) 0.5000 0.05058(9)
C1 C 0.2500 0.33167(10) 0.16833(10)
C2 C 0.2500 0.35900(8) 0.14100(8)
C3 C 0.22018(16) 0.36654(11) 0.12348(12)
H1 H 0.1993 0.3545 0.1288
C4 C 0.22048(17) 0.39212(12) 0.09757(12)
H2 H 0.1998 0.3970 0.0851
C5 C 0.2500 0.41003(9) 0.08997(9)
C6 C 0.2500 0.43734(7) 0.06266(7)
C7 C 0.24853(15) 0.47163(8) 0.07218(8)
C8 C 0.24654(18) 0.48294(9) 0.10787(8)
H3 H 0.2454 0.4684 0.1277
O1SA O 0.27779(9) 0.32752(8) 0.18526(8)
N1SA N 0.25010(15) 0.44942(9) 0.0000
C3SA C 0.27982(16) 0.37652(12) 0.13346(11)
H1SA H 0.3007 0.3712 0.1455
C4SA C 0.27952(17) 0.40243(12) 0.10788(12)
H2SA H 0.3002 0.4149 0.1030
C7SA C 0.25147(15) 0.42782(8) 0.02837(8)
C8SA C 0.25346(18) 0.39213(8) 0.01706(9)
H3SA H 0.2546 0.3723 0.0316
O1DB O 0.22221(9) 0.68526(8) 0.17248(8)
C1DB C 0.2500 0.66833(10) 0.16833(10)
C2DB C 0.2500 0.64100(8) 0.14100(8)
C3DB C 0.22018(16) 0.63346(11) 0.12348(12)
H1DB H 0.1993 0.6455 0.1288
C4DB C 0.22048(17) 0.60788(12) 0.09757(12)
H2DB H 0.1998 0.6030 0.0851
C5DB C 0.2500 0.58997(9) 0.08997(9)
C6DB C 0.2500 0.56266(7) 0.06266(7)
C7DB C 0.24853(15) 0.52837(8) 0.07218(8)
C8DB C 0.24654(18) 0.51706(9) 0.10787(8)
H3DB H 0.2454 0.5316 0.1277
O1XB O 0.27779(9) 0.67248(8) 0.18526(8)
N1RA N 0.25010(15) 0.55058(9) 0.0000
C3XB C 0.27982(16) 0.62348(12) 0.13346(11)
H1XB H 0.3007 0.6288 0.1455
C4XB C 0.27952(17) 0.59757(12) 0.10788(12)
H2XB H 0.3002 0.5851 0.1030
C7XB C 0.25147(15) 0.57218(8) 0.02837(8)
C8XB C 0.25346(18) 0.60787(8) 0.01706(9)
H3XB H 0.2546 0.6277 0.0316
O1ZB O 0.27779(9) 0.32752(8) -0.18526(8)
C1XA C 0.2500 0.33167(10) -0.16833(10)
C2XA C 0.2500 0.35900(8) -0.14100(8)
C3ZB C 0.27982(16) 0.37652(12) -0.13346(11)
H1ZB H 0.3007 0.3712 -0.1455
C4ZB C 0.27952(17) 0.40243(12) -0.10788(12)
H2ZB H 0.3002 0.4149 -0.1030
C5XA C 0.2500 0.41003(9) -0.08997(9)
C6XA C 0.2500 0.43734(7) -0.06266(7)
C7ZB C 0.25147(15) 0.42782(8) -0.02837(8)
C8ZB C 0.25346(18) 0.39213(8) -0.01706(9)
H3ZB H 0.2546 0.3723 -0.0316
O1RA O 0.27779(9) 0.67248(8) -0.18526(8)
C1E C 0.2500 0.66833(10) -0.16833(10)
C2E C 0.2500 0.64100(8) -0.14100(8)
C3RA C 0.27982(16) 0.62348(12) -0.13346(11)
H1RA H 0.3007 0.6288 -0.1455
C4RA C 0.27952(17) 0.59757(12) -0.10788(12)
H2RA H 0.3002 0.5851 -0.1030
C5E C 0.2500 0.58997(9) -0.08997(9)
C6E C 0.2500 0.56266(7) -0.06266(7)
C7RA C 0.25147(15) 0.57218(8) -0.02837(8)
C8RA C 0.25346(18) 0.60787(8) -0.01706(9)
H3RA H 0.2546 0.6277 -0.0316
O1XA O 0.22221(9) 0.31474(8) -0.17248(8)
N1E N 0.24990(15) 0.5000 -0.05058(9)
C3XA C 0.22018(16) 0.36654(11) -0.12348(12)
H1XA H 0.1993 0.3545 -0.1288
C4XA C 0.22048(17) 0.39212(12) -0.09757(12)
H2XA H 0.1998 0.3970 -0.0851
C7XA C 0.24853(15) 0.47163(8) -0.07218(8)
C8XA C 0.24654(18) 0.48294(9) -0.10787(8)
H3XA H 0.2454 0.4684 -0.1277
O1E O 0.22221(9) 0.68526(8) -0.17248(8)
C3E C 0.22018(16) 0.63346(11) -0.12348(12)
H1E H 0.1993 0.6455 -0.1288
C4E C 0.22048(17) 0.60788(12) -0.09757(12)
H2E H 0.1998 0.6030 -0.0851
C7E C 0.24853(15) 0.52837(8) -0.07218(8)
C8E C 0.24654(18) 0.51706(9) -0.10787(8)
H3E H 0.2454 0.5316 -0.1277
O2 O 0.15344(11) 0.24905(13) 0.20099(16)
O3 O 0.1963(2) 0.25898(10) 0.25898(10)
O4 O 0.21794(9) 0.21794(9) 0.21794(9)
loop_
_geom_bond_atom_site_label_1
_geom_bond_atom_site_label_2
_geom_bond_site_symmetry_1
_geom_bond_site_symmetry_2
Ni1 N1 1_555 1_555
O1 C1 1_555 1_555
N1 C7 1_555 1_555
C1 C2 1_555 1_555
C2 C3 1_555 1_555
C3 H1 1_555 1_555
C4 C3 1_555 1_555
H2 C4 1_555 1_555
C5 C4 1_555 1_555
C6 C5 1_555 1_555
C7 C6 1_555 1_555
C8 C7 1_555 1_555
H3 C8 1_555 1_555
O1SA C1 1_555 1_555
N1SA Ni1 1_555 1_555
C3SA C2 1_555 1_555
H1SA C3SA 1_555 1_555
C4SA C5 1_555 1_555
H2SA C4SA 1_555 1_555
C7SA C6 1_555 1_555
C8SA C7SA 1_555 1_555
H3SA C8SA 1_555 1_555
O1DB C1DB 1_555 1_555
C1DB C2DB 1_555 1_555
C2DB C3DB 1_555 1_555
C3DB H1DB 1_555 1_555
C4DB C3DB 1_555 1_555
H2DB C4DB 1_555 1_555
C5DB C4DB 1_555 1_555
C6DB C5DB 1_555 1_555
C7DB N1 1_555 1_555
C8DB C8 1_555 1_555
H3DB C8DB 1_555 1_555
O1XB C1DB 1_555 1_555
N1RA Ni1 1_555 1_555
C3XB C2DB 1_555 1_555
H1XB C3XB 1_555 1_555
C4XB C5DB 1_555 1_555
H2XB C4XB 1_555 1_555
C7XB C6DB 1_555 1_555
C8XB C7XB 1_555 1_555
H3XB C8XB 1_555 1_555
O1ZB C1XA 1_555 1_555
C1XA C2XA 1_555 1_555
C2XA C3ZB 1_555 1_555
C3ZB H1ZB 1_555 1_555
C4ZB C3ZB 1_555 1_555
H2ZB C4ZB 1_555 1_555
C5XA C4ZB 1_555 1_555
C6XA C5XA 1_555 1_555
C7ZB N1SA 1_555 1_555
C8ZB C8SA 1_555 1_555
H3ZB C8ZB 1_555 1_555
O1RA C1E 1_555 1_555
C1E C2E 1_555 1_555
C2E C3RA 1_555 1_555
C3RA H1RA 1_555 1_555
C4RA C3RA 1_555 1_555
H2RA C4RA 1_555 1_555
C5E C4RA 1_555 1_555
C6E C5E 1_555 1_555
C7RA N1RA 1_555 1_555
C8RA C8XB 1_555 1_555
H3RA C8RA 1_555 1_555
O1XA C1XA 1_555 1_555
N1E Ni1 1_555 1_555
C3XA C2XA 1_555 1_555
H1XA C3XA 1_555 1_555
C4XA C5XA 1_555 1_555
H2XA C4XA 1_555 1_555
C7XA C6XA 1_555 1_555
C8XA C7XA 1_555 1_555
H3XA C8XA 1_555 1_555
O1E C1E 1_555 1_555
C3E C2E 1_555 1_555
H1E C3E 1_555 1_555
C4E C5E 1_555 1_555
H2E C4E 1_555 1_555
C7E C6E 1_555 1_555
C8E C8XA 1_555 1_555
H3E C8E 1_555 1_555
N1SA C7SA 1_555 1_555
C3SA C4SA 1_555 1_555
C6DB C7DB 1_555 1_555
C7DB C8DB 1_555 1_555
N1RA C7XB 1_555 1_555
C3XB C4XB 1_555 1_555
C6XA C7ZB 1_555 1_555
C7ZB C8ZB 1_555 1_555
C6E C7RA 1_555 1_555
C7RA C8RA 1_555 1_555
N1E C7XA 1_555 1_555
N1E C7E 1_555 1_555
C3XA C4XA 1_555 1_555
C3E C4E 1_555 1_555
C7E C8E 1_555 1_555

#END
