
#######################################################################
#
#                 Cambridge Crystallographic Data Centre
#                                CCDC 
#
#######################################################################
#
# If this CIF has been generated from an entry in the Cambridge 
# Structural Database, then it will include bibliographic, chemical, 
# crystal, experimental, refinement or atomic coordinate data resulting 
# from the CCDC's data processing and validation procedures.
#
#######################################################################

data_FIFFUX
_chemical_name_common            NU-1000
_chemical_formula_moiety         '(C44 H30 O16 Zr3)n'
_chemical_name_systematic        
"catena-[(\m~8~-4,4',4'',4'''-Pyrene-1,3,6,8-tetrayltetrabenzoato)-bis(\m~3~-hydroxo)-bis(\m~2~-hydroxo)-tetrahydroxo-tri-zirconium(iv) unknown solvate]"
_symmetry_cell_setting           hexagonal
_symmetry_space_group_name_H-M   'P 6/m m m'
_symmetry_Int_Tables_number      191
_space_group_name_Hall           '-P 6 2'
loop_
_symmetry_equiv_pos_site_id
_symmetry_equiv_pos_as_xyz
1 x,y,z
2 x-y,x,z
3 -y,x-y,z
4 -x,-y,z
5 -x+y,-x,z
6 y,-x+y,z
7 x-y,-y,-z
8 -x,-x+y,-z
9 y,x,-z
10 -y,-x,-z
11 -x+y,y,-z
12 x,x-y,-z
13 -x,-y,-z
14 -x+y,-x,-z
15 y,-x+y,-z
16 x,y,-z
17 x-y,x,-z
18 -y,x-y,-z
19 -x+y,y,z
20 x,x-y,z
21 -y,-x,z
22 y,x,z
23 x-y,-y,z
24 -x,-x+y,z
_cell_length_a                   39.3875(7)
_cell_length_b                   39.3875(7)
_cell_length_c                   16.4829(3)
_cell_angle_alpha                90
_cell_angle_beta                 90
_cell_angle_gamma                120
_cell_volume                     22145.3
_exptl_crystal_colour            yellow
_exptl_crystal_description       block
_cell_formula_units_Z            6
loop_
_atom_site_label
_atom_site_type_symbol
_atom_site_fract_x
_atom_site_fract_y
_atom_site_fract_z
Zr1 Zr 0.45526(2) 0.45526(2) -0.10665(4)
Zr2 Zr 0.53598(2) 0.46402(2) 0.0000
O1 O 0.46598(16) 0.40823(15) -0.1515(3)
O2 O 0.51744(15) 0.41297(13) -0.0841(3)
O3 O 0.4668(3) 0.4668(3) -0.2406(4)
O4 O 0.40011(19) 0.40011(19) -0.0772(6)
O5 O 0.43140(12) 0.46799(11) 0.0000
C1 C 0.4913(2) 0.39850(19) -0.1337(4)
C2 C 0.4903(2) 0.3664(2) -0.1821(4)
C3 C 0.4592(3) 0.3456(2) -0.2398(5)
H1 H 0.4384 0.3512 -0.2446
C4 C 0.4600(3) 0.3169(2) -0.2888(5)
H2 H 0.4408 0.3044 -0.3300
C5 C 0.4882(3) 0.3065(2) -0.2779(4)
C6 C 0.5169(3) 0.3256(3) -0.2200(4)
H3 H 0.5365 0.3186 -0.2121
C7 C 0.5168(3) 0.3546(3) -0.1741(5)
H4 H 0.5367 0.3671 -0.1341
C8 C 0.4889(3) 0.2752(2) -0.3269(4)
C9 C 0.4899(4) 0.2765(3) -0.4145(4)
C10 C 0.4870(5) 0.2435(2) -0.4568(6)
C11 C 0.4885(5) 0.2442(3) -0.2881(6)
H5 H 0.4878 0.2439 -0.2304
C12 C 0.4904(4) 0.3072(2) -0.4613(5)
H6 H 0.4908 0.3285 -0.4337
O6 O 0.51752(12) 0.48248(12) -0.1048(4)
O1K O 0.46598(16) 0.05775(22) -0.8485(3)
O2K O 0.51744(15) 0.10447(20) -0.9159(3)
C1K C 0.4913(2) 0.09280(28) -0.8663(4)
C2K C 0.4903(2) 0.1239(3) -0.8179(4)
C3K C 0.4592(3) 0.1136(4) -0.7602(5)
H1K H 0.4384 0.0872 -0.7554
C4K C 0.4600(3) 0.1431(4) -0.7112(5)
H2K H 0.4408 0.1364 -0.6700
C5K C 0.4882(3) 0.1817(4) -0.7221(4)
C6K C 0.5169(3) 0.1913(4) -0.7800(4)
H3K H 0.5365 0.2179 -0.7879
C7K C 0.5168(3) 0.1622(4) -0.8259(5)
H4K H 0.5367 0.1696 -0.8659
C8K C 0.4889(3) 0.2137(4) -0.6731(4)
C9K C 0.4899(4) 0.2134(5) -0.5855(4)
C10K C 0.4870(5) 0.2435(5) -0.5432(6)
C11K C 0.4885(5) 0.2443(6) -0.7119(6)
H5K H 0.4878 0.2439 -0.7696
C12K C 0.4904(4) 0.1832(4) -0.5387(5)
H6K H 0.4908 0.1623 -0.5663
O1O O 0.46598(16) 0.40823(15) -0.8485(3)
O2O O 0.51744(15) 0.41297(13) -0.9159(3)
C1O C 0.4913(2) 0.39850(19) -0.8663(4)
C2O C 0.4903(2) 0.3664(2) -0.8179(4)
C3O C 0.4592(3) 0.3456(2) -0.7602(5)
H1O H 0.4384 0.3512 -0.7554
C4O C 0.4600(3) 0.3169(2) -0.7112(5)
H2O H 0.4408 0.3044 -0.6700
C5O C 0.4882(3) 0.3065(2) -0.7221(4)
C6O C 0.5169(3) 0.3256(3) -0.7800(4)
H3O H 0.5365 0.3186 -0.7879
C7O C 0.5168(3) 0.3546(3) -0.8259(5)
H4O H 0.5367 0.3671 -0.8659
C8O C 0.4889(3) 0.2752(2) -0.6731(4)
C9O C 0.4899(4) 0.2765(3) -0.5855(4)
C12O C 0.4904(4) 0.3072(2) -0.5387(5)
H6O H 0.4908 0.3285 -0.5663
O1S O 0.46598(16) 0.05775(22) -0.1515(3)
O2S O 0.51744(15) 0.10447(20) -0.0841(3)
C1S C 0.4913(2) 0.09280(28) -0.1337(4)
C2S C 0.4903(2) 0.1239(3) -0.1821(4)
C3S C 0.4592(3) 0.1136(4) -0.2398(5)
H1S H 0.4384 0.0872 -0.2446
C4S C 0.4600(3) 0.1431(4) -0.2888(5)
H2S H 0.4408 0.1364 -0.3300
C5S C 0.4882(3) 0.1817(4) -0.2779(4)
C6S C 0.5169(3) 0.1913(4) -0.2200(4)
H3S H 0.5365 0.2179 -0.2121
C7S C 0.5168(3) 0.1622(4) -0.1741(5)
H4S H 0.5367 0.1696 -0.1341
C8S C 0.4889(3) 0.2137(4) -0.3269(4)
C9S C 0.4899(4) 0.2134(5) -0.4145(4)
C12S C 0.4904(4) 0.1832(4) -0.4613(5)
H6S H 0.4908 0.1623 -0.4337
Zr1H Zr 0.45526(2) 0.45526(2) 0.10665(4)
O3H O 0.4668(3) 0.4668(3) 0.2406(4)
O4H O 0.40011(19) 0.40011(19) 0.0772(6)
O5H O 0.46799(11) 0.43140(12) 0.0000
O6C O 0.48248(12) 0.51752(12) -0.1048(4)
Zr1C Zr 0.54474(2) 0.54474(2) -0.10665(4)
Zr1E Zr 0.45526(2) 0.00000(3) -0.10665(4)
Zr1H_2 Zr 0.45526(2) 0.45526(2) -0.89335(4)
Zr1K Zr 0.45526(2) 0.00000(3) -0.89335(4)
Zr2_2 Zr 0.53598(2) 0.46402(2) -1.0000
Zr2B Zr 0.53598(2) 0.07196(3) -1.0000
Zr2B_2 Zr 0.53598(2) 0.07196(3) 0.0000
Zr2C Zr 0.46402(2) 0.53598(2) 0.0000
O1H O 0.40823(15) 0.46598(16) 0.1515(3)
O1O_2 O 0.46598(16) 0.40823(15) 0.1515(3)
O1U O 0.40823(15) 0.46598(16) -0.1515(3)
O2I O 0.58703(13) 0.48256(15) 0.0841(3)
O2O_2 O 0.51744(15) 0.41297(13) 0.0841(3)
O2T O 0.58703(13) 0.48256(15) -0.0841(3)
O5C O 0.56860(12) 0.53201(11) 0.0000
O6H O 0.48248(12) 0.51752(12) 0.1048(4)
O6I O 0.51752(12) 0.48248(12) 0.1048(4)
O7? O 0.5009(3) 0.4577(3) -0.1084(7)
loop_
_geom_bond_atom_site_label_1
_geom_bond_atom_site_label_2
_geom_bond_site_symmetry_1
_geom_bond_site_symmetry_2
Zr1 O1 1_555 1_555
Zr2 O2 1_555 1_555
O1 C1 1_555 1_555
O2 C1 1_555 1_555
O3 Zr1 1_555 1_555
O4 Zr1 1_555 1_555
O5 Zr1 1_555 1_555
C1 C2 1_555 1_555
C2 C3 1_555 1_555
C3 H1 1_555 1_555
C4 C3 1_555 1_555
H2 C4 1_555 1_555
C5 C4 1_555 1_555
C6 C5 1_555 1_555
H3 C6 1_555 1_555
C7 C2 1_555 1_555
H4 C7 1_555 1_555
C8 C5 1_555 1_555
C9 C8 1_555 1_555
C10 C9 1_555 1_555
C11 C8 1_555 1_555
H5 C11 1_555 1_555
C12 C9 1_555 1_555
H6 C12 1_555 1_555
O6 Zr1 1_555 1_555
O1K C1K 1_555 1_555
O2K C1K 1_555 1_555
C1K C2K 1_555 1_555
C2K C3K 1_555 1_555
C3K H1K 1_555 1_555
C4K C3K 1_555 1_555
H2K C4K 1_555 1_555
C5K C4K 1_555 1_555
C6K C5K 1_555 1_555
H3K C6K 1_555 1_555
C7K C2K 1_555 1_555
H4K C7K 1_555 1_555
C8K C5K 1_555 1_555
C9K C8K 1_555 1_555
C10K C10 1_555 1_555
C11K C8K 1_555 1_555
H5K C11K 1_555 1_555
C12K C9K 1_555 1_555
H6K C12K 1_555 1_555
O1O C1O 1_555 1_555
O2O C1O 1_555 1_555
C1O C2O 1_555 1_555
C2O C3O 1_555 1_555
C3O H1O 1_555 1_555
C4O C3O 1_555 1_555
H2O C4O 1_555 1_555
C5O C4O 1_555 1_555
C6O C5O 1_555 1_555
H3O C6O 1_555 1_555
C7O C2O 1_555 1_555
H4O C7O 1_555 1_555
C8O C11K 1_555 1_555
C9O C10K 1_555 1_555
C12O C12 1_555 1_555
H6O C12O 1_555 1_555
O1S C1S 1_555 1_555
O2S C1S 1_555 1_555
C1S C2S 1_555 1_555
C2S C3S 1_555 1_555
C3S H1S 1_555 1_555
C4S C3S 1_555 1_555
H2S C4S 1_555 1_555
C5S C4S 1_555 1_555
C6S C5S 1_555 1_555
H3S C6S 1_555 1_555
C7S C2S 1_555 1_555
H4S C7S 1_555 1_555
C8S C11 1_555 1_555
C9S C10 1_555 1_555
C12S C12K 1_555 1_555
H6S C12S 1_555 1_555
Zr1H O5 1_555 1_555
O3H Zr1H 1_555 1_555
O4H Zr1H 1_555 1_555
O5H Zr1 1_555 1_555
O6C Zr1 1_555 1_555
Zr1C O6 1_555 1_555
Zr1E O1S 1_555 1_555
Zr1H_2 O1O 1_555 1_555
Zr1K O1K 1_555 1_555
Zr2_2 O2O 1_555 1_555
Zr2B O2K 1_555 1_555
Zr2B_2 O2S 1_555 1_555
Zr2C O5 1_555 1_555
O1H Zr1H 1_555 1_555
O1O_2 Zr1H 1_555 1_555
O1U Zr1 1_555 1_555
O2I Zr2 1_555 1_555
O2O_2 Zr2 1_555 1_555
O2T Zr2 1_555 1_555
O5C Zr2 1_555 1_555
O6H Zr1H 1_555 1_555
O6I Zr2 1_555 1_555
Zr2 O6 1_555 1_555
Zr2 O5H 1_555 1_555
C6 C7 1_555 1_555
C6K C7K 1_555 1_555
C9K C10K 1_555 1_555
C5O C8O 1_555 1_555
C6O C7O 1_555 1_555
C8O C9O 1_555 1_555
C9O C12O 1_555 1_555
C5S C8S 1_555 1_555
C6S C7S 1_555 1_555
C8S C9S 1_555 1_555
C9S C12S 1_555 1_555
Zr1H O5H 1_555 1_555
Zr1H O6I 1_555 1_555
O6C Zr1C 1_555 1_555
O6C Zr2C 1_555 1_555
Zr1C O5C 1_555 1_555
Zr2C O6H 1_555 1_555

#END
