
#######################################################################
#
#                 Cambridge Crystallographic Data Centre
#                                CCDC 
#
#######################################################################
#
# If this CIF has been generated from an entry in the Cambridge 
# Structural Database, then it will include bibliographic, chemical, 
# crystal, experimental, refinement or atomic coordinate data resulting 
# from the CCDC's data processing and validation procedures.
#
#######################################################################

data_JUWVAB
_chemical_name_common            Th-UiO-66-NH2
_chemical_formula_moiety         '(C24 H23 N3 O19 Th3)n,3(H2 O1)'
_chemical_name_systematic        
'catena-[tris(\m-2-aminobenzene-1,4-dicarboxylato)-bis(\m-oxido)-bis(\m-hydroxido)-triaqua-tri-thorium(iv) trihydrate]'
_symmetry_cell_setting           cubic
_symmetry_space_group_name_H-M   'F m -3 m'
_symmetry_Int_Tables_number      225
_space_group_name_Hall           '-F 4 2 3'
loop_
_symmetry_equiv_pos_site_id
_symmetry_equiv_pos_as_xyz
1 x,y,z
2 -y,x,z
3 -x,-y,z
4 y,-x,z
5 x,-z,y
6 x,-y,-z
7 x,z,-y
8 z,y,-x
9 -x,y,-z
10 -z,y,x
11 z,x,y
12 y,z,x
13 -y,-z,x
14 z,-x,-y
15 -y,z,-x
16 -z,-x,y
17 -z,x,-y
18 y,-z,-x
19 y,x,-z
20 -y,-x,-z
21 -x,z,y
22 -x,-z,-y
23 z,-y,x
24 -z,-y,-x
25 x,1/2+y,1/2+z
26 -y,1/2+x,1/2+z
27 -x,1/2-y,1/2+z
28 y,1/2-x,1/2+z
29 x,1/2-z,1/2+y
30 x,1/2-y,1/2-z
31 x,1/2+z,1/2-y
32 z,1/2+y,1/2-x
33 -x,1/2+y,1/2-z
34 -z,1/2+y,1/2+x
35 z,1/2+x,1/2+y
36 y,1/2+z,1/2+x
37 -y,1/2-z,1/2+x
38 z,1/2-x,1/2-y
39 -y,1/2+z,1/2-x
40 -z,1/2-x,1/2+y
41 -z,1/2+x,1/2-y
42 y,1/2-z,1/2-x
43 y,1/2+x,1/2-z
44 -y,1/2-x,1/2-z
45 -x,1/2+z,1/2+y
46 -x,1/2-z,1/2-y
47 z,1/2-y,1/2+x
48 -z,1/2-y,1/2-x
49 1/2+x,y,1/2+z
50 1/2-y,x,1/2+z
51 1/2-x,-y,1/2+z
52 1/2+y,-x,1/2+z
53 1/2+x,-z,1/2+y
54 1/2+x,-y,1/2-z
55 1/2+x,z,1/2-y
56 1/2+z,y,1/2-x
57 1/2-x,y,1/2-z
58 1/2-z,y,1/2+x
59 1/2+z,x,1/2+y
60 1/2+y,z,1/2+x
61 1/2-y,-z,1/2+x
62 1/2+z,-x,1/2-y
63 1/2-y,z,1/2-x
64 1/2-z,-x,1/2+y
65 1/2-z,x,1/2-y
66 1/2+y,-z,1/2-x
67 1/2+y,x,1/2-z
68 1/2-y,-x,1/2-z
69 1/2-x,z,1/2+y
70 1/2-x,-z,1/2-y
71 1/2+z,-y,1/2+x
72 1/2-z,-y,1/2-x
73 1/2+x,1/2+y,z
74 1/2-y,1/2+x,z
75 1/2-x,1/2-y,z
76 1/2+y,1/2-x,z
77 1/2+x,1/2-z,y
78 1/2+x,1/2-y,-z
79 1/2+x,1/2+z,-y
80 1/2+z,1/2+y,-x
81 1/2-x,1/2+y,-z
82 1/2-z,1/2+y,x
83 1/2+z,1/2+x,y
84 1/2+y,1/2+z,x
85 1/2-y,1/2-z,x
86 1/2+z,1/2-x,-y
87 1/2-y,1/2+z,-x
88 1/2-z,1/2-x,y
89 1/2-z,1/2+x,-y
90 1/2+y,1/2-z,-x
91 1/2+y,1/2+x,-z
92 1/2-y,1/2-x,-z
93 1/2-x,1/2+z,y
94 1/2-x,1/2-z,-y
95 1/2+z,1/2-y,x
96 1/2-z,1/2-y,-x
97 -x,-y,-z
98 y,-x,-z
99 x,y,-z
100 -y,x,-z
101 -x,z,-y
102 -x,y,z
103 -x,-z,y
104 -z,-y,x
105 x,-y,z
106 z,-y,-x
107 -z,-x,-y
108 -y,-z,-x
109 y,z,-x
110 -z,x,y
111 y,-z,x
112 z,x,-y
113 z,-x,y
114 -y,z,x
115 -y,-x,z
116 y,x,z
117 x,-z,-y
118 x,z,y
119 -z,y,-x
120 z,y,x
121 -x,1/2-y,1/2-z
122 y,1/2-x,1/2-z
123 x,1/2+y,1/2-z
124 -y,1/2+x,1/2-z
125 -x,1/2+z,1/2-y
126 -x,1/2+y,1/2+z
127 -x,1/2-z,1/2+y
128 -z,1/2-y,1/2+x
129 x,1/2-y,1/2+z
130 z,1/2-y,1/2-x
131 -z,1/2-x,1/2-y
132 -y,1/2-z,1/2-x
133 y,1/2+z,1/2-x
134 -z,1/2+x,1/2+y
135 y,1/2-z,1/2+x
136 z,1/2+x,1/2-y
137 z,1/2-x,1/2+y
138 -y,1/2+z,1/2+x
139 -y,1/2-x,1/2+z
140 y,1/2+x,1/2+z
141 x,1/2-z,1/2-y
142 x,1/2+z,1/2+y
143 -z,1/2+y,1/2-x
144 z,1/2+y,1/2+x
145 1/2-x,-y,1/2-z
146 1/2+y,-x,1/2-z
147 1/2+x,y,1/2-z
148 1/2-y,x,1/2-z
149 1/2-x,z,1/2-y
150 1/2-x,y,1/2+z
151 1/2-x,-z,1/2+y
152 1/2-z,-y,1/2+x
153 1/2+x,-y,1/2+z
154 1/2+z,-y,1/2-x
155 1/2-z,-x,1/2-y
156 1/2-y,-z,1/2-x
157 1/2+y,z,1/2-x
158 1/2-z,x,1/2+y
159 1/2+y,-z,1/2+x
160 1/2+z,x,1/2-y
161 1/2+z,-x,1/2+y
162 1/2-y,z,1/2+x
163 1/2-y,-x,1/2+z
164 1/2+y,x,1/2+z
165 1/2+x,-z,1/2-y
166 1/2+x,z,1/2+y
167 1/2-z,y,1/2-x
168 1/2+z,y,1/2+x
169 1/2-x,1/2-y,-z
170 1/2+y,1/2-x,-z
171 1/2+x,1/2+y,-z
172 1/2-y,1/2+x,-z
173 1/2-x,1/2+z,-y
174 1/2-x,1/2+y,z
175 1/2-x,1/2-z,y
176 1/2-z,1/2-y,x
177 1/2+x,1/2-y,z
178 1/2+z,1/2-y,-x
179 1/2-z,1/2-x,-y
180 1/2-y,1/2-z,-x
181 1/2+y,1/2+z,-x
182 1/2-z,1/2+x,y
183 1/2+y,1/2-z,x
184 1/2+z,1/2+x,-y
185 1/2+z,1/2-x,y
186 1/2-y,1/2+z,x
187 1/2-y,1/2-x,z
188 1/2+y,1/2+x,z
189 1/2+x,1/2-z,-y
190 1/2+x,1/2+z,y
191 1/2-z,1/2+y,-x
192 1/2+z,1/2+y,x
_cell_length_a                   21.9665(14)
_cell_length_b                   21.9665(14)
_cell_length_c                   21.9665(14)
_cell_angle_alpha                90
_cell_angle_beta                 90
_cell_angle_gamma                90
_cell_volume                     10599.4
_exptl_crystal_description       octahedral
_cell_formula_units_Z            8
loop_
_atom_site_label
_atom_site_type_symbol
_atom_site_fract_x
_atom_site_fract_y
_atom_site_fract_z
Th1 Th 0.0000 0.12805(2) 0.0000
O1 O 0.0000 0.17426(13) 0.10199(13)
C1 C 0.0000 0.15703(14) 0.15703(14)
C2 C 0.0000 0.20486(15) 0.20486(15)
O2 O 0.0000 0.2491(3) 0.0000
O3 O 0.06966(16) 0.06966(16) 0.06966(16)
C3 C 0.0000 0.2653(3) 0.1900(2)
H1 H 0.0000 0.2769 0.1484
O1T O 0.0000 0.10199(13) 0.17426(13)
C3T C 0.0000 0.1900(2) 0.2653(3)
H1T H 0.0000 0.1484 0.2769
O1SA O 0.0000 0.39801(13) 0.32574(13)
C1CA C 0.0000 0.34297(14) 0.34297(14)
C2CA C 0.0000 0.29514(15) 0.29514(15)
C3SA C 0.0000 0.3100(2) 0.2347(3)
H1SA H 0.0000 0.3516 0.2231
O1CA O 0.0000 0.32574(13) 0.39801(13)
C3CA C 0.0000 0.2347(3) 0.3100(2)
H1CA H 0.0000 0.2231 0.3516
Th1A Th -0.12805(2) 0.0000 0.0000
O1A O -0.17426(13) 0.0000 0.10199(13)
C1A C -0.15703(14) 0.0000 0.15703(14)
C2A C -0.20486(15) 0.0000 0.20486(15)
O2A O -0.2491(3) 0.0000 0.0000
O3A O -0.06966(16) 0.06966(16) 0.06966(16)
C3A C -0.2653(3) 0.0000 0.1900(2)
H1A H -0.2769 0.0000 0.1484
O1O O -0.10199(13) 0.0000 0.17426(13)
C3O C -0.1900(2) 0.0000 0.2653(3)
H1O H -0.1484 0.0000 0.2769
O1IB O -0.39801(13) 0.0000 0.32574(13)
C1IB C -0.34297(14) 0.0000 0.34297(14)
C2IB C -0.29514(15) 0.0000 0.29514(15)
C3IB C -0.3100(2) 0.0000 0.2347(3)
H1IB H -0.3516 0.0000 0.2231
O1NB O -0.32574(13) 0.0000 0.39801(13)
C3NB C -0.2347(3) 0.0000 0.3100(2)
H1NB H -0.2231 0.0000 0.3516
Th1C Th 0.12805(2) 0.0000 0.0000
O1C O 0.17426(13) 0.0000 0.10199(13)
C1C C 0.15703(14) 0.0000 0.15703(14)
C2C C 0.20486(15) 0.0000 0.20486(15)
O2C O 0.2491(3) 0.0000 0.0000
O3C O 0.06966(16) -0.06966(16) 0.06966(16)
C3C C 0.2653(3) 0.0000 0.1900(2)
H1C H 0.2769 0.0000 0.1484
O1J O 0.10199(13) 0.0000 0.17426(13)
C3J C 0.1900(2) 0.0000 0.2653(3)
H1J H 0.1484 0.0000 0.2769
O1LB O 0.39801(13) 0.0000 0.32574(13)
C1LB C 0.34297(14) 0.0000 0.34297(14)
C2LB C 0.29514(15) 0.0000 0.29514(15)
C3LB C 0.3100(2) 0.0000 0.2347(3)
H1LB H 0.3516 0.0000 0.2231
O1OB O 0.32574(13) 0.0000 0.39801(13)
C3OB C 0.2347(3) 0.0000 0.3100(2)
H1OB H 0.2231 0.0000 0.3516
O3F O 0.06966(16) 0.06966(16) -0.06966(16)
Th1B Th 0.0000 -0.12805(2) 0.0000
Th1D Th 0.0000 0.0000 0.12805(2)
Th1F Th 0.0000 0.0000 -0.12805(2)
Th1Z Th 0.0000 0.37195(2) 0.5000
Th1DA Th 0.0000 0.5000 0.37195(2)
Th1WA Th 0.37195(2) 0.0000 0.5000
Th1YA Th -0.37195(2) 0.0000 0.5000
Th1BB Th -0.5000 0.0000 0.37195(2)
Th1BB_2 Th 0.5000 0.0000 0.37195(2)
O1G O 0.10199(13) 0.17426(13) 0.0000
O1H O 0.0000 0.17426(13) -0.10199(13)
O1I O -0.10199(13) 0.17426(13) 0.0000
O1K O 0.17426(13) 0.10199(13) 0.0000
O1L O -0.17426(13) -0.10199(13) 0.0000
O1N O -0.17426(13) 0.10199(13) 0.0000
O1Q O 0.17426(13) -0.10199(13) 0.0000
O1R O 0.17426(13) 0.0000 -0.10199(13)
O1S O -0.17426(13) 0.0000 -0.10199(13)
O3B O -0.06966(16) -0.06966(16) 0.06966(16)
O3E O 0.06966(16) -0.06966(16) -0.06966(16)
O3H O -0.06966(16) 0.06966(16) -0.06966(16)
O3S O -0.06966(16) -0.06966(16) -0.06966(16)
N1? N 0.0000 0.2839(9) 0.1250(8)
H2? H 0.0000 0.2561 0.0962
H3? H 0.0000 0.3228 0.1153
O4? O 0.0532(2) 0.0532(2) 0.0532(2)
loop_
_geom_bond_atom_site_label_1
_geom_bond_atom_site_label_2
_geom_bond_site_symmetry_1
_geom_bond_site_symmetry_2
Th1 O1 1_555 1_555
O1 C1 1_555 1_555
C1 C2 1_555 1_555
C2 C3 1_555 1_555
O2 Th1 1_555 1_555
O3 Th1 1_555 1_555
C3 H1 1_555 1_555
O1T C1 1_555 1_555
C3T C2 1_555 1_555
H1T C3T 1_555 1_555
O1SA C1CA 1_555 1_555
C1CA C2CA 1_555 1_555
C2CA C3SA 1_555 1_555
C3SA C3 1_555 1_555
H1SA C3SA 1_555 1_555
O1CA C1CA 1_555 1_555
C3CA C3T 1_555 1_555
H1CA C3CA 1_555 1_555
Th1A O1A 1_555 1_555
O1A C1A 1_555 1_555
C1A C2A 1_555 1_555
C2A C3A 1_555 1_555
O2A Th1A 1_555 1_555
O3A Th1 1_555 1_555
C3A H1A 1_555 1_555
O1O C1A 1_555 1_555
C3O C2A 1_555 1_555
H1O C3O 1_555 1_555
O1IB C1IB 1_555 1_555
C1IB C2IB 1_555 1_555
C2IB C3IB 1_555 1_555
C3IB C3A 1_555 1_555
H1IB C3IB 1_555 1_555
O1NB C1IB 1_555 1_555
C3NB C3O 1_555 1_555
H1NB C3NB 1_555 1_555
Th1C O3 1_555 1_555
O1C Th1C 1_555 1_555
C1C O1C 1_555 1_555
C2C C1C 1_555 1_555
O2C Th1C 1_555 1_555
O3C Th1C 1_555 1_555
C3C C2C 1_555 1_555
H1C C3C 1_555 1_555
O1J C1C 1_555 1_555
C3J C2C 1_555 1_555
H1J C3J 1_555 1_555
O1LB C1LB 1_555 1_555
C1LB C2LB 1_555 1_555
C2LB C3LB 1_555 1_555
C3LB C3C 1_555 1_555
H1LB C3LB 1_555 1_555
O1OB C1LB 1_555 1_555
C3OB C3J 1_555 1_555
H1OB C3OB 1_555 1_555
O3F Th1 1_555 1_555
Th1B O3C 1_555 1_555
Th1D O3 1_555 1_555
Th1F O3F 1_555 1_555
Th1Z O1CA 1_555 1_555
Th1DA O1SA 1_555 1_555
Th1WA O1OB 1_555 1_555
Th1YA O1NB 1_555 1_555
Th1BB O1IB 1_555 1_555
Th1BB_2 O1LB 1_555 1_555
O1G Th1 1_555 1_555
O1H Th1 1_555 1_555
O1I Th1 1_555 1_555
O1K Th1C 1_555 1_555
O1L Th1A 1_555 1_555
O1N Th1A 1_555 1_555
O1Q Th1C 1_555 1_555
O1R Th1C 1_555 1_555
O1S Th1A 1_555 1_555
O3B Th1A 1_555 1_555
O3E Th1C 1_555 1_555
O3H Th1 1_555 1_555
O3S Th1A 1_555 1_555
O1T Th1D 1_555 1_555
C2CA C3CA 1_555 1_555
Th1A O3A 1_555 1_555
Th1A O3H 1_555 1_555
O3A Th1D 1_555 1_555
O1O Th1D 1_555 1_555
C2IB C3NB 1_555 1_555
Th1C O3F 1_555 1_555
O3C Th1D 1_555 1_555
O1J Th1D 1_555 1_555
C2LB C3OB 1_555 1_555
Th1B O3B 1_555 1_555
Th1B O3E 1_555 1_555
Th1B O3S 1_555 1_555
Th1D O3B 1_555 1_555
Th1F O3E 1_555 1_555
Th1F O3H 1_555 1_555
Th1F O3S 1_555 1_555

#END
