
#######################################################################
#
#                 Cambridge Crystallographic Data Centre
#                                CCDC 
#
#######################################################################
#
# If this CIF has been generated from an entry in the Cambridge 
# Structural Database, then it will include bibliographic, chemical, 
# crystal, experimental, refinement or atomic coordinate data resulting 
# from the CCDC's data processing and validation procedures.
#
#######################################################################

data_JUWVOP
_chemical_name_common            Th-UiO-66-NO2
_chemical_formula_moiety         '(C24 H17 N3 O25 Th3)n'
_chemical_name_systematic        
'catena-[tris(\m-2-nitrobenzene-1,4-dicarboxylato)-bis(\m-oxido)-bis(\m-hydroxido)-triaqua-tri-thorium(iv) unknown solvate]'
_symmetry_cell_setting           cubic
_symmetry_space_group_name_H-M   'F m -3 m'
_symmetry_Int_Tables_number      225
_space_group_name_Hall           '-F 4 2 3'
loop_
_symmetry_equiv_pos_site_id
_symmetry_equiv_pos_as_xyz
1 x,y,z
2 -x,-y,z
3 -x,y,-z
4 x,-y,-z
5 z,x,y
6 z,-x,-y
7 -z,-x,y
8 -z,x,-y
9 y,z,x
10 -y,z,-x
11 y,-z,-x
12 -y,-z,x
13 y,x,-z
14 -y,-x,-z
15 y,-x,z
16 -y,x,z
17 x,z,-y
18 -x,z,y
19 -x,-z,-y
20 x,-z,y
21 z,y,-x
22 z,-y,x
23 -z,y,x
24 -z,-y,-x
25 x,1/2+y,1/2+z
26 -x,1/2-y,1/2+z
27 -x,1/2+y,1/2-z
28 x,1/2-y,1/2-z
29 z,1/2+x,1/2+y
30 z,1/2-x,1/2-y
31 -z,1/2-x,1/2+y
32 -z,1/2+x,1/2-y
33 y,1/2+z,1/2+x
34 -y,1/2+z,1/2-x
35 y,1/2-z,1/2-x
36 -y,1/2-z,1/2+x
37 y,1/2+x,1/2-z
38 -y,1/2-x,1/2-z
39 y,1/2-x,1/2+z
40 -y,1/2+x,1/2+z
41 x,1/2+z,1/2-y
42 -x,1/2+z,1/2+y
43 -x,1/2-z,1/2-y
44 x,1/2-z,1/2+y
45 z,1/2+y,1/2-x
46 z,1/2-y,1/2+x
47 -z,1/2+y,1/2+x
48 -z,1/2-y,1/2-x
49 1/2+x,y,1/2+z
50 1/2-x,-y,1/2+z
51 1/2-x,y,1/2-z
52 1/2+x,-y,1/2-z
53 1/2+z,x,1/2+y
54 1/2+z,-x,1/2-y
55 1/2-z,-x,1/2+y
56 1/2-z,x,1/2-y
57 1/2+y,z,1/2+x
58 1/2-y,z,1/2-x
59 1/2+y,-z,1/2-x
60 1/2-y,-z,1/2+x
61 1/2+y,x,1/2-z
62 1/2-y,-x,1/2-z
63 1/2+y,-x,1/2+z
64 1/2-y,x,1/2+z
65 1/2+x,z,1/2-y
66 1/2-x,z,1/2+y
67 1/2-x,-z,1/2-y
68 1/2+x,-z,1/2+y
69 1/2+z,y,1/2-x
70 1/2+z,-y,1/2+x
71 1/2-z,y,1/2+x
72 1/2-z,-y,1/2-x
73 1/2+x,1/2+y,z
74 1/2-x,1/2-y,z
75 1/2-x,1/2+y,-z
76 1/2+x,1/2-y,-z
77 1/2+z,1/2+x,y
78 1/2+z,1/2-x,-y
79 1/2-z,1/2-x,y
80 1/2-z,1/2+x,-y
81 1/2+y,1/2+z,x
82 1/2-y,1/2+z,-x
83 1/2+y,1/2-z,-x
84 1/2-y,1/2-z,x
85 1/2+y,1/2+x,-z
86 1/2-y,1/2-x,-z
87 1/2+y,1/2-x,z
88 1/2-y,1/2+x,z
89 1/2+x,1/2+z,-y
90 1/2-x,1/2+z,y
91 1/2-x,1/2-z,-y
92 1/2+x,1/2-z,y
93 1/2+z,1/2+y,-x
94 1/2+z,1/2-y,x
95 1/2-z,1/2+y,x
96 1/2-z,1/2-y,-x
97 -x,-y,-z
98 x,y,-z
99 x,-y,z
100 -x,y,z
101 -z,-x,-y
102 -z,x,y
103 z,x,-y
104 z,-x,y
105 -y,-z,-x
106 y,-z,x
107 -y,z,x
108 y,z,-x
109 -y,-x,z
110 y,x,z
111 -y,x,-z
112 y,-x,-z
113 -x,-z,y
114 x,-z,-y
115 x,z,y
116 -x,z,-y
117 -z,-y,x
118 -z,y,-x
119 z,-y,-x
120 z,y,x
121 -x,1/2-y,1/2-z
122 x,1/2+y,1/2-z
123 x,1/2-y,1/2+z
124 -x,1/2+y,1/2+z
125 -z,1/2-x,1/2-y
126 -z,1/2+x,1/2+y
127 z,1/2+x,1/2-y
128 z,1/2-x,1/2+y
129 -y,1/2-z,1/2-x
130 y,1/2-z,1/2+x
131 -y,1/2+z,1/2+x
132 y,1/2+z,1/2-x
133 -y,1/2-x,1/2+z
134 y,1/2+x,1/2+z
135 -y,1/2+x,1/2-z
136 y,1/2-x,1/2-z
137 -x,1/2-z,1/2+y
138 x,1/2-z,1/2-y
139 x,1/2+z,1/2+y
140 -x,1/2+z,1/2-y
141 -z,1/2-y,1/2+x
142 -z,1/2+y,1/2-x
143 z,1/2-y,1/2-x
144 z,1/2+y,1/2+x
145 1/2-x,-y,1/2-z
146 1/2+x,y,1/2-z
147 1/2+x,-y,1/2+z
148 1/2-x,y,1/2+z
149 1/2-z,-x,1/2-y
150 1/2-z,x,1/2+y
151 1/2+z,x,1/2-y
152 1/2+z,-x,1/2+y
153 1/2-y,-z,1/2-x
154 1/2+y,-z,1/2+x
155 1/2-y,z,1/2+x
156 1/2+y,z,1/2-x
157 1/2-y,-x,1/2+z
158 1/2+y,x,1/2+z
159 1/2-y,x,1/2-z
160 1/2+y,-x,1/2-z
161 1/2-x,-z,1/2+y
162 1/2+x,-z,1/2-y
163 1/2+x,z,1/2+y
164 1/2-x,z,1/2-y
165 1/2-z,-y,1/2+x
166 1/2-z,y,1/2-x
167 1/2+z,-y,1/2-x
168 1/2+z,y,1/2+x
169 1/2-x,1/2-y,-z
170 1/2+x,1/2+y,-z
171 1/2+x,1/2-y,z
172 1/2-x,1/2+y,z
173 1/2-z,1/2-x,-y
174 1/2-z,1/2+x,y
175 1/2+z,1/2+x,-y
176 1/2+z,1/2-x,y
177 1/2-y,1/2-z,-x
178 1/2+y,1/2-z,x
179 1/2-y,1/2+z,x
180 1/2+y,1/2+z,-x
181 1/2-y,1/2-x,z
182 1/2+y,1/2+x,z
183 1/2-y,1/2+x,-z
184 1/2+y,1/2-x,-z
185 1/2-x,1/2-z,y
186 1/2+x,1/2-z,-y
187 1/2+x,1/2+z,y
188 1/2-x,1/2+z,-y
189 1/2-z,1/2-y,x
190 1/2-z,1/2+y,-x
191 1/2+z,1/2-y,-x
192 1/2+z,1/2+y,x
_cell_length_a                   21.9553(9)
_cell_length_b                   21.9553(9)
_cell_length_c                   21.9553(9)
_cell_angle_alpha                90
_cell_angle_beta                 90
_cell_angle_gamma                90
_cell_volume                     10583.2
_exptl_crystal_colour            colorless
_exptl_crystal_description       octahedral
_cell_formula_units_Z            8
loop_
_atom_site_label
_atom_site_type_symbol
_atom_site_fract_x
_atom_site_fract_y
_atom_site_fract_z
Th1 Th 0.62647(2) 0.5000 0.5000
O1 O 0.67470(11) 0.39777(11) 0.5000
O2 O 0.7475(3) 0.5000 0.5000
C1 C 0.7638(2) 0.3091(2) 0.5000
H1 H 0.7756 0.3508 0.5000
C2 C 0.70482(12) 0.29518(12) 0.5000
C3 C 0.65639(11) 0.34361(11) 0.5000
O3 O 0.56978(14) 0.43022(14) 0.43022(14)
O1M O 0.60223(11) 0.32530(11) 0.5000
C1M C 0.6909(2) 0.2362(2) 0.5000
H1M H 0.6492 0.2244 0.5000
O1FC O 0.89777(11) 0.17470(11) 0.5000
C1FC C 0.8091(2) 0.2638(2) 0.5000
H1FC H 0.8508 0.2756 0.5000
C2UB C 0.79518(12) 0.20482(12) 0.5000
C3UB C 0.84361(11) 0.15639(11) 0.5000
O1UB O 0.82530(11) 0.10223(11) 0.5000
C1UB C 0.7362(2) 0.1909(2) 0.5000
H1UB H 0.7244 0.1492 0.5000
O1C O 0.67470(11) 0.60223(11) 0.5000
C1C C 0.7638(2) 0.6909(2) 0.5000
H1C H 0.7756 0.6492 0.5000
C2C C 0.70482(12) 0.70482(12) 0.5000
C3C C 0.65639(11) 0.65639(11) 0.5000
O3C O 0.56978(14) 0.56978(14) 0.56978(14)
O1O O 0.60223(11) 0.67470(11) 0.5000
C1O C 0.6909(2) 0.7638(2) 0.5000
H1O H 0.6492 0.7756 0.5000
O1HC O 0.89777(11) 0.82530(11) 0.5000
C1HC C 0.8091(2) 0.7362(2) 0.5000
H1HC H 0.8508 0.7244 0.5000
C2VB C 0.79518(12) 0.79518(12) 0.5000
C3VB C 0.84361(11) 0.84361(11) 0.5000
O1VB O 0.82530(11) 0.89777(11) 0.5000
C1VB C 0.7362(2) 0.8091(2) 0.5000
H1VB H 0.7244 0.8508 0.5000
Th1D Th 0.5000 0.62647(2) 0.5000
O1D O 0.5000 0.67470(11) 0.39777(11)
O2D O 0.5000 0.7475(3) 0.5000
C1D C 0.5000 0.7638(2) 0.3091(2)
H1D H 0.5000 0.7756 0.3508
C2D C 0.5000 0.70482(12) 0.29518(12)
C3D C 0.5000 0.65639(11) 0.34361(11)
O3A O 0.43022(14) 0.56978(14) 0.43022(14)
O1W O 0.5000 0.60223(11) 0.32530(11)
C1W C 0.5000 0.6909(2) 0.2362(2)
H1W H 0.5000 0.6492 0.2244
O1TA O 0.5000 0.89777(11) 0.17470(11)
C1TA C 0.5000 0.8091(2) 0.2638(2)
H1TA H 0.5000 0.8508 0.2756
C2CA C 0.5000 0.79518(12) 0.20482(12)
C3CA C 0.5000 0.84361(11) 0.15639(11)
O1CA O 0.5000 0.82530(11) 0.10223(11)
C1CA C 0.5000 0.7362(2) 0.1909(2)
H1CA H 0.5000 0.7244 0.1492
Th1E Th 0.5000 0.37353(2) 0.5000
O2E O 0.5000 0.2525(3) 0.5000
O3B O 0.43022(14) 0.43022(14) 0.56978(14)
Th1A Th 0.37353(2) 0.5000 0.5000
Th1H Th 0.5000 0.5000 0.62647(2)
Th1I Th 0.5000 0.5000 0.37353(2)
Th1CA Th 0.5000 0.87353(2) 0.0000
Th1FA Th 0.5000 1.0000 0.12647(2)
Th1UB Th 0.87353(2) 0.0000 0.5000
Th1UB_2 Th 0.87353(2) 1.0000 0.5000
Th1XB Th 1.0000 0.12647(2) 0.5000
Th1YB Th 1.0000 0.87353(2) 0.5000
O1E O 0.5000 0.32530(11) 0.60223(11)
O1F O 0.5000 0.32530(11) 0.39777(11)
O1G O 0.5000 0.67470(11) 0.60223(11)
O1L O 0.39777(11) 0.67470(11) 0.5000
O1N O 0.39777(11) 0.32530(11) 0.5000
O1P O 0.67470(11) 0.5000 0.60223(11)
O1S O 0.67470(11) 0.5000 0.39777(11)
O3L O 0.43022(14) 0.56978(14) 0.56978(14)
O3M O 0.56978(14) 0.43022(14) 0.56978(14)
O3N O 0.43022(14) 0.43022(14) 0.43022(14)
O3O O 0.56978(14) 0.56978(14) 0.43022(14)
O4? O 0.55117(14) 0.44883(14) 0.44883(14)
N1? N 0.7897(8) 0.3733(7) 0.5000
O5? O 0.8132(14) 0.3948(14) 0.4524(4)
loop_
_geom_bond_atom_site_label_1
_geom_bond_atom_site_label_2
_geom_bond_site_symmetry_1
_geom_bond_site_symmetry_2
Th1 O1 1_555 1_555
O1 C3 1_555 1_555
O2 Th1 1_555 1_555
C1 H1 1_555 1_555
C2 C1 1_555 1_555
C3 C2 1_555 1_555
O3 Th1 1_555 1_555
O1M C3 1_555 1_555
C1M C2 1_555 1_555
H1M C1M 1_555 1_555
O1FC C3UB 1_555 1_555
C1FC C1 1_555 1_555
H1FC C1FC 1_555 1_555
C2UB C1FC 1_555 1_555
C3UB C2UB 1_555 1_555
O1UB C3UB 1_555 1_555
C1UB C1M 1_555 1_555
H1UB C1UB 1_555 1_555
O1C Th1 1_555 1_555
C1C H1C 1_555 1_555
C2C C1C 1_555 1_555
C3C O1C 1_555 1_555
O3C Th1 1_555 1_555
O1O C3C 1_555 1_555
C1O C2C 1_555 1_555
H1O C1O 1_555 1_555
O1HC C3VB 1_555 1_555
C1HC C1C 1_555 1_555
H1HC C1HC 1_555 1_555
C2VB C1HC 1_555 1_555
C3VB C2VB 1_555 1_555
O1VB C3VB 1_555 1_555
C1VB C1O 1_555 1_555
H1VB C1VB 1_555 1_555
Th1D O3C 1_555 1_555
O1D Th1D 1_555 1_555
O2D Th1D 1_555 1_555
C1D H1D 1_555 1_555
C2D C1D 1_555 1_555
C3D O1D 1_555 1_555
O3A Th1D 1_555 1_555
O1W C3D 1_555 1_555
C1W C2D 1_555 1_555
H1W C1W 1_555 1_555
O1TA C3CA 1_555 1_555
C1TA C1D 1_555 1_555
H1TA C1TA 1_555 1_555
C2CA C1TA 1_555 1_555
C3CA C2CA 1_555 1_555
O1CA C3CA 1_555 1_555
C1CA C1W 1_555 1_555
H1CA C1CA 1_555 1_555
Th1E O3 1_555 1_555
O2E Th1E 1_555 1_555
O3B Th1E 1_555 1_555
Th1A O3A 1_555 1_555
Th1H O3C 1_555 1_555
Th1I O3 1_555 1_555
Th1CA O1CA 1_555 1_555
Th1FA O1TA 1_555 1_555
Th1UB O1UB 1_555 1_555
Th1UB_2 O1VB 1_555 1_555
Th1XB O1FC 1_555 1_555
Th1YB O1HC 1_555 1_555
O1E Th1E 1_555 1_555
O1F Th1E 1_555 1_555
O1G Th1D 1_555 1_555
O1L Th1D 1_555 1_555
O1N Th1E 1_555 1_555
O1P Th1 1_555 1_555
O1S Th1 1_555 1_555
O3L Th1D 1_555 1_555
O3M Th1 1_555 1_555
O3N Th1E 1_555 1_555
O3O Th1 1_555 1_555
O1M Th1E 1_555 1_555
C2UB C1UB 1_555 1_555
C2C C3C 1_555 1_555
O1O Th1D 1_555 1_555
C2VB C1VB 1_555 1_555
Th1D O3O 1_555 1_555
C2D C3D 1_555 1_555
O3A Th1I 1_555 1_555
O1W Th1I 1_555 1_555
C2CA C1CA 1_555 1_555
Th1E O3M 1_555 1_555
O3B Th1A 1_555 1_555
O3B Th1H 1_555 1_555
Th1A O3L 1_555 1_555
Th1A O3N 1_555 1_555
Th1H O3L 1_555 1_555
Th1H O3M 1_555 1_555
Th1I O3N 1_555 1_555
Th1I O3O 1_555 1_555

#END
