
#######################################################################
#
#                 Cambridge Crystallographic Data Centre
#                                CCDC 
#
#######################################################################
#
# If this CIF has been generated from an entry in the Cambridge 
# Structural Database, then it will include bibliographic, chemical, 
# crystal, experimental, refinement or atomic coordinate data resulting 
# from the CCDC's data processing and validation procedures.
#
#######################################################################

data_JUWWOQ
_chemical_name_common            Th-UiO-66-Me2
_chemical_formula_moiety         '(C30 H32 O19 Th3)n'
_chemical_name_systematic        
'catena-[tris(\m-2,5-dimethylbenzene-1,4-dicarboxylato)-bis(\m-oxido)-bis(\m-hydroxido)-triaqua-tri-thorium(iv) unknown solvate]'
_symmetry_cell_setting           cubic
_symmetry_space_group_name_H-M   'F m -3 m'
_symmetry_Int_Tables_number      225
_space_group_name_Hall           '-F 4 2 3'
loop_
_symmetry_equiv_pos_site_id
_symmetry_equiv_pos_as_xyz
1 x,y,z
2 -y,x,z
3 -x,-y,z
4 y,-x,z
5 x,-z,y
6 x,-y,-z
7 x,z,-y
8 z,y,-x
9 -x,y,-z
10 -z,y,x
11 z,x,y
12 y,z,x
13 -y,-z,x
14 z,-x,-y
15 -y,z,-x
16 -z,-x,y
17 -z,x,-y
18 y,-z,-x
19 y,x,-z
20 -y,-x,-z
21 -x,z,y
22 -x,-z,-y
23 z,-y,x
24 -z,-y,-x
25 x,1/2+y,1/2+z
26 -y,1/2+x,1/2+z
27 -x,1/2-y,1/2+z
28 y,1/2-x,1/2+z
29 x,1/2-z,1/2+y
30 x,1/2-y,1/2-z
31 x,1/2+z,1/2-y
32 z,1/2+y,1/2-x
33 -x,1/2+y,1/2-z
34 -z,1/2+y,1/2+x
35 z,1/2+x,1/2+y
36 y,1/2+z,1/2+x
37 -y,1/2-z,1/2+x
38 z,1/2-x,1/2-y
39 -y,1/2+z,1/2-x
40 -z,1/2-x,1/2+y
41 -z,1/2+x,1/2-y
42 y,1/2-z,1/2-x
43 y,1/2+x,1/2-z
44 -y,1/2-x,1/2-z
45 -x,1/2+z,1/2+y
46 -x,1/2-z,1/2-y
47 z,1/2-y,1/2+x
48 -z,1/2-y,1/2-x
49 1/2+x,y,1/2+z
50 1/2-y,x,1/2+z
51 1/2-x,-y,1/2+z
52 1/2+y,-x,1/2+z
53 1/2+x,-z,1/2+y
54 1/2+x,-y,1/2-z
55 1/2+x,z,1/2-y
56 1/2+z,y,1/2-x
57 1/2-x,y,1/2-z
58 1/2-z,y,1/2+x
59 1/2+z,x,1/2+y
60 1/2+y,z,1/2+x
61 1/2-y,-z,1/2+x
62 1/2+z,-x,1/2-y
63 1/2-y,z,1/2-x
64 1/2-z,-x,1/2+y
65 1/2-z,x,1/2-y
66 1/2+y,-z,1/2-x
67 1/2+y,x,1/2-z
68 1/2-y,-x,1/2-z
69 1/2-x,z,1/2+y
70 1/2-x,-z,1/2-y
71 1/2+z,-y,1/2+x
72 1/2-z,-y,1/2-x
73 1/2+x,1/2+y,z
74 1/2-y,1/2+x,z
75 1/2-x,1/2-y,z
76 1/2+y,1/2-x,z
77 1/2+x,1/2-z,y
78 1/2+x,1/2-y,-z
79 1/2+x,1/2+z,-y
80 1/2+z,1/2+y,-x
81 1/2-x,1/2+y,-z
82 1/2-z,1/2+y,x
83 1/2+z,1/2+x,y
84 1/2+y,1/2+z,x
85 1/2-y,1/2-z,x
86 1/2+z,1/2-x,-y
87 1/2-y,1/2+z,-x
88 1/2-z,1/2-x,y
89 1/2-z,1/2+x,-y
90 1/2+y,1/2-z,-x
91 1/2+y,1/2+x,-z
92 1/2-y,1/2-x,-z
93 1/2-x,1/2+z,y
94 1/2-x,1/2-z,-y
95 1/2+z,1/2-y,x
96 1/2-z,1/2-y,-x
97 -x,-y,-z
98 y,-x,-z
99 x,y,-z
100 -y,x,-z
101 -x,z,-y
102 -x,y,z
103 -x,-z,y
104 -z,-y,x
105 x,-y,z
106 z,-y,-x
107 -z,-x,-y
108 -y,-z,-x
109 y,z,-x
110 -z,x,y
111 y,-z,x
112 z,x,-y
113 z,-x,y
114 -y,z,x
115 -y,-x,z
116 y,x,z
117 x,-z,-y
118 x,z,y
119 -z,y,-x
120 z,y,x
121 -x,1/2-y,1/2-z
122 y,1/2-x,1/2-z
123 x,1/2+y,1/2-z
124 -y,1/2+x,1/2-z
125 -x,1/2+z,1/2-y
126 -x,1/2+y,1/2+z
127 -x,1/2-z,1/2+y
128 -z,1/2-y,1/2+x
129 x,1/2-y,1/2+z
130 z,1/2-y,1/2-x
131 -z,1/2-x,1/2-y
132 -y,1/2-z,1/2-x
133 y,1/2+z,1/2-x
134 -z,1/2+x,1/2+y
135 y,1/2-z,1/2+x
136 z,1/2+x,1/2-y
137 z,1/2-x,1/2+y
138 -y,1/2+z,1/2+x
139 -y,1/2-x,1/2+z
140 y,1/2+x,1/2+z
141 x,1/2-z,1/2-y
142 x,1/2+z,1/2+y
143 -z,1/2+y,1/2-x
144 z,1/2+y,1/2+x
145 1/2-x,-y,1/2-z
146 1/2+y,-x,1/2-z
147 1/2+x,y,1/2-z
148 1/2-y,x,1/2-z
149 1/2-x,z,1/2-y
150 1/2-x,y,1/2+z
151 1/2-x,-z,1/2+y
152 1/2-z,-y,1/2+x
153 1/2+x,-y,1/2+z
154 1/2+z,-y,1/2-x
155 1/2-z,-x,1/2-y
156 1/2-y,-z,1/2-x
157 1/2+y,z,1/2-x
158 1/2-z,x,1/2+y
159 1/2+y,-z,1/2+x
160 1/2+z,x,1/2-y
161 1/2+z,-x,1/2+y
162 1/2-y,z,1/2+x
163 1/2-y,-x,1/2+z
164 1/2+y,x,1/2+z
165 1/2+x,-z,1/2-y
166 1/2+x,z,1/2+y
167 1/2-z,y,1/2-x
168 1/2+z,y,1/2+x
169 1/2-x,1/2-y,-z
170 1/2+y,1/2-x,-z
171 1/2+x,1/2+y,-z
172 1/2-y,1/2+x,-z
173 1/2-x,1/2+z,-y
174 1/2-x,1/2+y,z
175 1/2-x,1/2-z,y
176 1/2-z,1/2-y,x
177 1/2+x,1/2-y,z
178 1/2+z,1/2-y,-x
179 1/2-z,1/2-x,-y
180 1/2-y,1/2-z,-x
181 1/2+y,1/2+z,-x
182 1/2-z,1/2+x,y
183 1/2+y,1/2-z,x
184 1/2+z,1/2+x,-y
185 1/2+z,1/2-x,y
186 1/2-y,1/2+z,x
187 1/2-y,1/2-x,z
188 1/2+y,1/2+x,z
189 1/2+x,1/2-z,-y
190 1/2+x,1/2+z,y
191 1/2-z,1/2+y,-x
192 1/2+z,1/2+y,x
_cell_length_a                   21.9476(5)
_cell_length_b                   21.9476(5)
_cell_length_c                   21.9476(5)
_cell_angle_alpha                90
_cell_angle_beta                 90
_cell_angle_gamma                90
_cell_volume                     10572.1
_exptl_crystal_colour            colorless
_exptl_crystal_description       octahedral
_cell_formula_units_Z            8
loop_
_atom_site_label
_atom_site_type_symbol
_atom_site_fract_x
_atom_site_fract_y
_atom_site_fract_z
Th1 Th 0.5000 0.5000 0.37216(2)
O1 O 0.3984(3) 0.5000 0.3252(3)
C1 C 0.3431(3) 0.5000 0.3431(3)
C2 C 0.2953(3) 0.5000 0.2953(3)
C3 C 0.3084(6) 0.5000 0.2361(5)
H1 H 0.3500 0.5000 0.2240
O2 O 0.5000 0.5000 0.2503(10)
C4 C 0.3743(10) 0.5000 0.2139(9)
H2 H 0.3749 0.5000 0.1693
H3 H 0.3951 0.5365 0.2291
O3 O 0.5683(4) 0.4317(4) 0.4317(4)
O1V O 0.3252(3) 0.5000 0.3984(3)
C3V C 0.2361(5) 0.5000 0.3084(6)
H1V H 0.2240 0.5000 0.3500
C4V C 0.2139(9) 0.5000 0.3743(10)
H2V H 0.1693 0.5000 0.3749
H3V H 0.2291 0.4635 0.3951
O1SB O 0.1748(3) 0.5000 0.1016(3)
C1DB C 0.1569(3) 0.5000 0.1569(3)
C2DB C 0.2047(3) 0.5000 0.2047(3)
C3SB C 0.2639(5) 0.5000 0.1916(6)
H1SB H 0.2760 0.5000 0.1500
C4SB C 0.2861(9) 0.5000 0.1257(10)
H2SB H 0.3307 0.5000 0.1251
H3SB H 0.2709 0.4635 0.1049
H3ZC H 0.3951 0.4635 0.2291
H3OD H 0.2291 0.5365 0.3951
H3JF H 0.2709 0.5365 0.1049
O1DB O 0.1016(3) 0.5000 0.1748(3)
C3DB C 0.1916(6) 0.5000 0.2639(5)
H1DB H 0.1500 0.5000 0.2760
C4DB C 0.1257(10) 0.5000 0.2861(9)
H2DB H 0.1251 0.5000 0.3307
H3DB H 0.1049 0.5365 0.2709
H3NE H 0.1049 0.4635 0.2709
O1A O 0.5000 0.3984(3) 0.3252(3)
C1A C 0.5000 0.3431(3) 0.3431(3)
C2A C 0.5000 0.2953(3) 0.2953(3)
C3A C 0.5000 0.3084(6) 0.2361(5)
H1A H 0.5000 0.3500 0.2240
C4A C 0.5000 0.3743(10) 0.2139(9)
H2A H 0.5000 0.3749 0.1693
H3A H 0.4635 0.3951 0.2291
O3A O 0.5683(4) 0.5683(4) 0.4317(4)
O1K O 0.5000 0.3252(3) 0.3984(3)
C3K C 0.5000 0.2361(5) 0.3084(6)
H1K H 0.5000 0.2240 0.3500
C4K C 0.5000 0.2139(9) 0.3743(10)
H2K H 0.5000 0.1693 0.3749
H3K H 0.5365 0.2291 0.3951
O1OA O 0.5000 0.1748(3) 0.1016(3)
C1OA C 0.5000 0.1569(3) 0.1569(3)
C2OA C 0.5000 0.2047(3) 0.2047(3)
C3OA C 0.5000 0.2639(5) 0.1916(6)
H1OA H 0.5000 0.2760 0.1500
C4OA C 0.5000 0.2861(9) 0.1257(10)
H2OA H 0.5000 0.3307 0.1251
H3OA H 0.5365 0.2709 0.1049
H3KD H 0.5365 0.3951 0.2291
H3ID H 0.4635 0.2291 0.3951
H3AE H 0.4635 0.2709 0.1049
O1QA O 0.5000 0.1016(3) 0.1748(3)
C3QA C 0.5000 0.1916(6) 0.2639(5)
H1QA H 0.5000 0.1500 0.2760
C4QA C 0.5000 0.1257(10) 0.2861(9)
H2QA H 0.5000 0.1251 0.3307
H3QA H 0.4635 0.1049 0.2709
H3QD H 0.5365 0.1049 0.2709
O1B O 0.6016(3) 0.5000 0.3252(3)
C1B C 0.6569(3) 0.5000 0.3431(3)
C2B C 0.7047(3) 0.5000 0.2953(3)
C3B C 0.6916(6) 0.5000 0.2361(5)
H1B H 0.6500 0.5000 0.2240
C4B C 0.6257(10) 0.5000 0.2139(9)
H2B H 0.6251 0.5000 0.1693
H3B H 0.6049 0.4635 0.2291
O3B O 0.4317(4) 0.5683(4) 0.4317(4)
O1I O 0.6748(3) 0.5000 0.3984(3)
C3I C 0.7639(5) 0.5000 0.3084(6)
H1I H 0.7760 0.5000 0.3500
C4I C 0.7861(9) 0.5000 0.3743(10)
H2I H 0.8307 0.5000 0.3749
H3I H 0.7709 0.5365 0.3951
O1CB O 0.8252(3) 0.5000 0.1016(3)
C1AB C 0.8431(3) 0.5000 0.1569(3)
C2AB C 0.7953(3) 0.5000 0.2047(3)
C3CB C 0.7361(5) 0.5000 0.1916(6)
H1CB H 0.7240 0.5000 0.1500
C4CB C 0.7139(9) 0.5000 0.1257(10)
H2CB H 0.6693 0.5000 0.1251
H3CB H 0.7291 0.5365 0.1049
H3WC H 0.6049 0.5365 0.2291
H3YC H 0.7709 0.4635 0.3951
H3WE H 0.7291 0.4635 0.1049
O1AB O 0.8984(3) 0.5000 0.1748(3)
C3AB C 0.8084(6) 0.5000 0.2639(5)
H1AB H 0.8500 0.5000 0.2760
C4AB C 0.8743(10) 0.5000 0.2861(9)
H2AB H 0.8749 0.5000 0.3307
H3AB H 0.8951 0.4635 0.2709
H3PE H 0.8951 0.5365 0.2709
O3C O 0.4317(4) 0.4317(4) 0.4317(4)
Th1D Th 0.5000 0.62784(2) 0.5000
O2D O 0.5000 0.7497(10) 0.5000
Th1F Th 0.5000 0.37216(2) 0.5000
O2F O 0.5000 0.2503(10) 0.5000
Th1G Th 0.37216(2) 0.5000 0.5000
Th1I Th 0.62784(2) 0.5000 0.5000
Th1BA Th 0.5000 0.12784(2) 0.0000
Th1CA Th 0.5000 0.0000 0.12784(2)
Th1AB Th 0.0000 0.5000 0.12784(2)
Th1AB_2 Th 1.0000 0.5000 0.12784(2)
Th1CB Th 0.87216(2) 0.5000 0.0000
Th1EB Th 0.12784(2) 0.5000 0.0000
O1C O 0.5000 0.6016(3) 0.3252(3)
O1D O 0.3984(3) 0.6748(3) 0.5000
O1F O 0.3984(3) 0.3252(3) 0.5000
O1L O 0.5000 0.6748(3) 0.3984(3)
O1N O 0.5000 0.3252(3) 0.6016(3)
O1Q O 0.5000 0.6748(3) 0.6016(3)
O1T O 0.6016(3) 0.3252(3) 0.5000
O1U O 0.6016(3) 0.6748(3) 0.5000
O3E O 0.5683(4) 0.5683(4) 0.5683(4)
O3F O 0.5683(4) 0.4317(4) 0.5683(4)
O3H O 0.4317(4) 0.4317(4) 0.5683(4)
O3R O 0.4317(4) 0.5683(4) 0.5683(4)
O4? O 0.5514(4) 0.4486(4) 0.4486(4)
loop_
_geom_bond_atom_site_label_1
_geom_bond_atom_site_label_2
_geom_bond_site_symmetry_1
_geom_bond_site_symmetry_2
Th1 O1 1_555 1_555
O1 C1 1_555 1_555
C1 C2 1_555 1_555
C2 C3 1_555 1_555
C3 H1 1_555 1_555
H1 C4 1_555 1_555
O2 Th1 1_555 1_555
C4 C3 1_555 1_555
H2 C4 1_555 1_555
H3 C4 1_555 1_555
O3 Th1 1_555 1_555
O1V C1 1_555 1_555
C3V C2 1_555 1_555
H1V C3V 1_555 1_555
C4V C3V 1_555 1_555
H2V C4V 1_555 1_555
H3V C4V 1_555 1_555
O1SB C1DB 1_555 1_555
C1DB C2DB 1_555 1_555
C2DB C3SB 1_555 1_555
C3SB C3 1_555 1_555
H1SB C3SB 1_555 1_555
C4SB C3SB 1_555 1_555
H2SB C4SB 1_555 1_555
H3SB C4SB 1_555 1_555
H3ZC C4 1_555 1_555
H3OD C4V 1_555 1_555
H3JF C4SB 1_555 1_555
O1DB C1DB 1_555 1_555
C3DB C3V 1_555 1_555
H1DB C3DB 1_555 1_555
C4DB C3DB 1_555 1_555
H2DB C4DB 1_555 1_555
H3DB C4DB 1_555 1_555
H3NE C4DB 1_555 1_555
O1A Th1 1_555 1_555
C1A O1A 1_555 1_555
C2A C1A 1_555 1_555
C3A C2A 1_555 1_555
H1A C3A 1_555 1_555
C4A C3A 1_555 1_555
H2A C4A 1_555 1_555
H3A C4A 1_555 1_555
O3A Th1 1_555 1_555
O1K C1A 1_555 1_555
C3K C2A 1_555 1_555
H1K C3K 1_555 1_555
C4K C3K 1_555 1_555
H2K C4K 1_555 1_555
H3K C4K 1_555 1_555
O1OA C1OA 1_555 1_555
C1OA C2OA 1_555 1_555
C2OA C3OA 1_555 1_555
C3OA C3A 1_555 1_555
H1OA C3OA 1_555 1_555
C4OA C3OA 1_555 1_555
H2OA C4OA 1_555 1_555
H3OA C4OA 1_555 1_555
H3KD C4A 1_555 1_555
H3ID C4K 1_555 1_555
H3AE C4OA 1_555 1_555
O1QA C1OA 1_555 1_555
C3QA C3K 1_555 1_555
H1QA C3QA 1_555 1_555
C4QA C3QA 1_555 1_555
H2QA C4QA 1_555 1_555
H3QA C4QA 1_555 1_555
H3QD C4QA 1_555 1_555
O1B Th1 1_555 1_555
C1B O1B 1_555 1_555
C2B C1B 1_555 1_555
C3B C2B 1_555 1_555
H1B C3B 1_555 1_555
C4B C3B 1_555 1_555
H2B C4B 1_555 1_555
H3B C4B 1_555 1_555
O3B Th1 1_555 1_555
O1I C1B 1_555 1_555
C3I C2B 1_555 1_555
H1I C3I 1_555 1_555
C4I C3I 1_555 1_555
H2I C4I 1_555 1_555
H3I C4I 1_555 1_555
O1CB C1AB 1_555 1_555
C1AB C2AB 1_555 1_555
C2AB C3CB 1_555 1_555
C3CB C3B 1_555 1_555
H1CB C3CB 1_555 1_555
C4CB C3CB 1_555 1_555
H2CB C4CB 1_555 1_555
H3CB C4CB 1_555 1_555
H3WC C4B 1_555 1_555
H3YC C4I 1_555 1_555
H3WE C4CB 1_555 1_555
O1AB C1AB 1_555 1_555
C3AB C3I 1_555 1_555
H1AB C3AB 1_555 1_555
C4AB C3AB 1_555 1_555
H2AB C4AB 1_555 1_555
H3AB C4AB 1_555 1_555
H3PE C4AB 1_555 1_555
O3C Th1 1_555 1_555
Th1D O3A 1_555 1_555
O2D Th1D 1_555 1_555
Th1F O3 1_555 1_555
O2F Th1F 1_555 1_555
Th1G O1V 1_555 1_555
Th1I O3 1_555 1_555
Th1BA O1OA 1_555 1_555
Th1CA O1QA 1_555 1_555
Th1AB O1DB 1_555 1_555
Th1AB_2 O1AB 1_555 1_555
Th1CB O1CB 1_555 1_555
Th1EB O1SB 1_555 1_555
O1C Th1 1_555 1_555
O1D Th1D 1_555 1_555
O1F Th1F 1_555 1_555
O1L Th1D 1_555 1_555
O1N Th1F 1_555 1_555
O1Q Th1D 1_555 1_555
O1T Th1F 1_555 1_555
O1U Th1D 1_555 1_555
O3E Th1D 1_555 1_555
O3F Th1F 1_555 1_555
O3H Th1F 1_555 1_555
O3R Th1D 1_555 1_555
H1V C4V 1_555 1_555
C2DB C3DB 1_555 1_555
H1SB C4SB 1_555 1_555
H1DB C4DB 1_555 1_555
H1A C4A 1_555 1_555
O3A Th1I 1_555 1_555
O1K Th1F 1_555 1_555
H1K C4K 1_555 1_555
C2OA C3QA 1_555 1_555
H1OA C4OA 1_555 1_555
H1QA C4QA 1_555 1_555
H1B C4B 1_555 1_555
O3B Th1D 1_555 1_555
O3B Th1G 1_555 1_555
O1I Th1I 1_555 1_555
H1I C4I 1_555 1_555
C2AB C3AB 1_555 1_555
H1CB C4CB 1_555 1_555
H1AB C4AB 1_555 1_555
O3C Th1F 1_555 1_555
O3C Th1G 1_555 1_555
Th1G O3H 1_555 1_555
Th1G O3R 1_555 1_555
Th1I O3E 1_555 1_555
Th1I O3F 1_555 1_555

#END
