
#######################################################################
#
#                 Cambridge Crystallographic Data Centre
#                                CCDC 
#
#######################################################################
#
# If this CIF has been generated from an entry in the Cambridge 
# Structural Database, then it will include bibliographic, chemical, 
# crystal, experimental, refinement or atomic coordinate data resulting 
# from the CCDC's data processing and validation procedures.
#
#######################################################################

data_JUWWUW
_chemical_name_common            Th-UiO-66-Cl2
_chemical_formula_moiety         '(C24 H14 Cl6 O19 Th3)n'
_chemical_name_systematic        
'catena-[tris(\m-2,5-dichlorobenzene-1,4-dicarboxylato)-bis(\m-oxido)-bis(\m-hydroxido)-triaqua-tri-thorium(iv) unknown solvate]'
_symmetry_cell_setting           cubic
_symmetry_space_group_name_H-M   'F m -3 m'
_symmetry_Int_Tables_number      225
_space_group_name_Hall           '-F 4 2 3'
loop_
_symmetry_equiv_pos_site_id
_symmetry_equiv_pos_as_xyz
1 x,y,z
2 -y,x,z
3 -x,-y,z
4 y,-x,z
5 x,-z,y
6 x,-y,-z
7 x,z,-y
8 z,y,-x
9 -x,y,-z
10 -z,y,x
11 z,x,y
12 y,z,x
13 -y,-z,x
14 z,-x,-y
15 -y,z,-x
16 -z,-x,y
17 -z,x,-y
18 y,-z,-x
19 y,x,-z
20 -y,-x,-z
21 -x,z,y
22 -x,-z,-y
23 z,-y,x
24 -z,-y,-x
25 x,1/2+y,1/2+z
26 -y,1/2+x,1/2+z
27 -x,1/2-y,1/2+z
28 y,1/2-x,1/2+z
29 x,1/2-z,1/2+y
30 x,1/2-y,1/2-z
31 x,1/2+z,1/2-y
32 z,1/2+y,1/2-x
33 -x,1/2+y,1/2-z
34 -z,1/2+y,1/2+x
35 z,1/2+x,1/2+y
36 y,1/2+z,1/2+x
37 -y,1/2-z,1/2+x
38 z,1/2-x,1/2-y
39 -y,1/2+z,1/2-x
40 -z,1/2-x,1/2+y
41 -z,1/2+x,1/2-y
42 y,1/2-z,1/2-x
43 y,1/2+x,1/2-z
44 -y,1/2-x,1/2-z
45 -x,1/2+z,1/2+y
46 -x,1/2-z,1/2-y
47 z,1/2-y,1/2+x
48 -z,1/2-y,1/2-x
49 1/2+x,y,1/2+z
50 1/2-y,x,1/2+z
51 1/2-x,-y,1/2+z
52 1/2+y,-x,1/2+z
53 1/2+x,-z,1/2+y
54 1/2+x,-y,1/2-z
55 1/2+x,z,1/2-y
56 1/2+z,y,1/2-x
57 1/2-x,y,1/2-z
58 1/2-z,y,1/2+x
59 1/2+z,x,1/2+y
60 1/2+y,z,1/2+x
61 1/2-y,-z,1/2+x
62 1/2+z,-x,1/2-y
63 1/2-y,z,1/2-x
64 1/2-z,-x,1/2+y
65 1/2-z,x,1/2-y
66 1/2+y,-z,1/2-x
67 1/2+y,x,1/2-z
68 1/2-y,-x,1/2-z
69 1/2-x,z,1/2+y
70 1/2-x,-z,1/2-y
71 1/2+z,-y,1/2+x
72 1/2-z,-y,1/2-x
73 1/2+x,1/2+y,z
74 1/2-y,1/2+x,z
75 1/2-x,1/2-y,z
76 1/2+y,1/2-x,z
77 1/2+x,1/2-z,y
78 1/2+x,1/2-y,-z
79 1/2+x,1/2+z,-y
80 1/2+z,1/2+y,-x
81 1/2-x,1/2+y,-z
82 1/2-z,1/2+y,x
83 1/2+z,1/2+x,y
84 1/2+y,1/2+z,x
85 1/2-y,1/2-z,x
86 1/2+z,1/2-x,-y
87 1/2-y,1/2+z,-x
88 1/2-z,1/2-x,y
89 1/2-z,1/2+x,-y
90 1/2+y,1/2-z,-x
91 1/2+y,1/2+x,-z
92 1/2-y,1/2-x,-z
93 1/2-x,1/2+z,y
94 1/2-x,1/2-z,-y
95 1/2+z,1/2-y,x
96 1/2-z,1/2-y,-x
97 -x,-y,-z
98 y,-x,-z
99 x,y,-z
100 -y,x,-z
101 -x,z,-y
102 -x,y,z
103 -x,-z,y
104 -z,-y,x
105 x,-y,z
106 z,-y,-x
107 -z,-x,-y
108 -y,-z,-x
109 y,z,-x
110 -z,x,y
111 y,-z,x
112 z,x,-y
113 z,-x,y
114 -y,z,x
115 -y,-x,z
116 y,x,z
117 x,-z,-y
118 x,z,y
119 -z,y,-x
120 z,y,x
121 -x,1/2-y,1/2-z
122 y,1/2-x,1/2-z
123 x,1/2+y,1/2-z
124 -y,1/2+x,1/2-z
125 -x,1/2+z,1/2-y
126 -x,1/2+y,1/2+z
127 -x,1/2-z,1/2+y
128 -z,1/2-y,1/2+x
129 x,1/2-y,1/2+z
130 z,1/2-y,1/2-x
131 -z,1/2-x,1/2-y
132 -y,1/2-z,1/2-x
133 y,1/2+z,1/2-x
134 -z,1/2+x,1/2+y
135 y,1/2-z,1/2+x
136 z,1/2+x,1/2-y
137 z,1/2-x,1/2+y
138 -y,1/2+z,1/2+x
139 -y,1/2-x,1/2+z
140 y,1/2+x,1/2+z
141 x,1/2-z,1/2-y
142 x,1/2+z,1/2+y
143 -z,1/2+y,1/2-x
144 z,1/2+y,1/2+x
145 1/2-x,-y,1/2-z
146 1/2+y,-x,1/2-z
147 1/2+x,y,1/2-z
148 1/2-y,x,1/2-z
149 1/2-x,z,1/2-y
150 1/2-x,y,1/2+z
151 1/2-x,-z,1/2+y
152 1/2-z,-y,1/2+x
153 1/2+x,-y,1/2+z
154 1/2+z,-y,1/2-x
155 1/2-z,-x,1/2-y
156 1/2-y,-z,1/2-x
157 1/2+y,z,1/2-x
158 1/2-z,x,1/2+y
159 1/2+y,-z,1/2+x
160 1/2+z,x,1/2-y
161 1/2+z,-x,1/2+y
162 1/2-y,z,1/2+x
163 1/2-y,-x,1/2+z
164 1/2+y,x,1/2+z
165 1/2+x,-z,1/2-y
166 1/2+x,z,1/2+y
167 1/2-z,y,1/2-x
168 1/2+z,y,1/2+x
169 1/2-x,1/2-y,-z
170 1/2+y,1/2-x,-z
171 1/2+x,1/2+y,-z
172 1/2-y,1/2+x,-z
173 1/2-x,1/2+z,-y
174 1/2-x,1/2+y,z
175 1/2-x,1/2-z,y
176 1/2-z,1/2-y,x
177 1/2+x,1/2-y,z
178 1/2+z,1/2-y,-x
179 1/2-z,1/2-x,-y
180 1/2-y,1/2-z,-x
181 1/2+y,1/2+z,-x
182 1/2-z,1/2+x,y
183 1/2+y,1/2-z,x
184 1/2+z,1/2+x,-y
185 1/2+z,1/2-x,y
186 1/2-y,1/2+z,x
187 1/2-y,1/2-x,z
188 1/2+y,1/2+x,z
189 1/2+x,1/2-z,-y
190 1/2+x,1/2+z,y
191 1/2-z,1/2+y,-x
192 1/2+z,1/2+y,x
_cell_length_a                   21.9824(6)
_cell_length_b                   21.9824(6)
_cell_length_c                   21.9824(6)
_cell_angle_alpha                90
_cell_angle_beta                 90
_cell_angle_gamma                90
_cell_volume                     10622.5
_exptl_crystal_colour            colorless
_exptl_crystal_description       octahedral
_cell_formula_units_Z            8
loop_
_atom_site_label
_atom_site_type_symbol
_atom_site_fract_x
_atom_site_fract_y
_atom_site_fract_z
Th1 Th 0.5000 0.5000 0.37372(7)
O1 O 0.4409(11) 0.4409(11) 0.4409(11)
O2 O 0.5000 0.6036(10) 0.3253(9)
C1 C 0.5000 0.6547(11) 0.3453(11)
C2 C 0.5000 0.7033(11) 0.2967(11)
O3 O 0.5000 0.5000 0.2519(18)
C3 C 0.5000 0.6910(9) 0.2356(8)
H1 H 0.5000 0.6496 0.2231
O2U O 0.5000 0.6747(9) 0.3964(10)
C3U C 0.5000 0.7644(8) 0.3090(9)
H1U H 0.5000 0.7769 0.3504
O2RA O 0.5000 0.8253(9) 0.1036(10)
C1CA C 0.5000 0.8453(11) 0.1547(11)
C2CA C 0.5000 0.7967(11) 0.2033(11)
C3RA C 0.5000 0.7356(8) 0.1910(9)
H1RA H 0.5000 0.7231 0.1496
O2CA O 0.5000 0.8964(10) 0.1747(9)
C3CA C 0.5000 0.8090(9) 0.2644(8)
H1CA H 0.5000 0.8504 0.2769
O1A O 0.5591(11) 0.4409(11) 0.4409(11)
O2A O 0.3964(10) 0.5000 0.3253(9)
C1A C 0.3453(11) 0.5000 0.3453(11)
C2A C 0.2967(11) 0.5000 0.2967(11)
C3A C 0.3090(9) 0.5000 0.2356(8)
H1A H 0.3504 0.5000 0.2231
O2M O 0.3253(9) 0.5000 0.3964(10)
C3M C 0.2356(8) 0.5000 0.3090(9)
H1M H 0.2231 0.5000 0.3504
O2KB O 0.1747(9) 0.5000 0.1036(10)
C1KB C 0.1547(11) 0.5000 0.1547(11)
C2KB C 0.2033(11) 0.5000 0.2033(11)
C3KB C 0.2644(8) 0.5000 0.1910(9)
H1KB H 0.2769 0.5000 0.1496
O2NB O 0.1036(10) 0.5000 0.1747(9)
C3NB C 0.1910(9) 0.5000 0.2644(8)
H1NB H 0.1496 0.5000 0.2769
O1B O 0.5591(11) 0.5591(11) 0.4409(11)
O2B O 0.5000 0.3964(10) 0.3253(9)
C1B C 0.5000 0.3453(11) 0.3453(11)
C2B C 0.5000 0.2967(11) 0.2967(11)
C3B C 0.5000 0.3090(9) 0.2356(8)
H1B H 0.5000 0.3504 0.2231
O2F O 0.5000 0.3253(9) 0.3964(10)
C3F C 0.5000 0.2356(8) 0.3090(9)
H1F H 0.5000 0.2231 0.3504
O2BA O 0.5000 0.1747(9) 0.1036(10)
C1BA C 0.5000 0.1547(11) 0.1547(11)
C2BA C 0.5000 0.2033(11) 0.2033(11)
C3BA C 0.5000 0.2644(8) 0.1910(9)
H1BA H 0.5000 0.2769 0.1496
O2FA O 0.5000 0.1036(10) 0.1747(9)
C3FA C 0.5000 0.1910(9) 0.2644(8)
H1FA H 0.5000 0.1496 0.2769
O1C O 0.4409(11) 0.5591(11) 0.4409(11)
Th1D Th 0.5000 0.62628(7) 0.5000
O3D O 0.5000 0.7481(18) 0.5000
Th1F Th 0.5000 0.37372(7) 0.5000
O3F O 0.5000 0.2519(18) 0.5000
Th1G Th 0.37372(7) 0.5000 0.5000
Th1I Th 0.62628(7) 0.5000 0.5000
Th1BA Th 0.5000 0.12628(7) 0.0000
Th1CA Th 0.5000 0.0000 0.12628(7)
Th1CA_2 Th 0.5000 1.0000 0.12628(7)
Th1DA Th 0.5000 0.87372(7) 0.0000
Th1AB Th 0.0000 0.5000 0.12628(7)
Th1EB Th 0.12628(7) 0.5000 0.0000
O1E O 0.4409(11) 0.5591(11) 0.5591(11)
O1F O 0.4409(11) 0.4409(11) 0.5591(11)
O1H O 0.5591(11) 0.4409(11) 0.5591(11)
O1S O 0.5591(11) 0.5591(11) 0.5591(11)
O2C O 0.6036(10) 0.5000 0.3253(9)
O2D O 0.5000 0.6747(9) 0.6036(10)
O2K O 0.6036(10) 0.3253(9) 0.5000
O2L O 0.3964(10) 0.6747(9) 0.5000
O2N O 0.3964(10) 0.3253(9) 0.5000
O2Q O 0.6036(10) 0.6747(9) 0.5000
O2T O 0.5000 0.3253(9) 0.6036(10)
Cl1? Cl 0.5000 0.6128(13) 0.2121(11)
loop_
_geom_bond_atom_site_label_1
_geom_bond_atom_site_label_2
_geom_bond_site_symmetry_1
_geom_bond_site_symmetry_2
Th1 O1 1_555 1_555
O1 Th1F 1_555 1_555
O2 Th1 1_555 1_555
C1 O2 1_555 1_555
C2 C1 1_555 1_555
O3 Th1 1_555 1_555
C3 C2 1_555 1_555
H1 C3 1_555 1_555
O2U C1 1_555 1_555
C3U C2 1_555 1_555
H1U C3U 1_555 1_555
O2RA C1CA 1_555 1_555
C1CA C2CA 1_555 1_555
C2CA C3RA 1_555 1_555
C3RA C3 1_555 1_555
H1RA C3RA 1_555 1_555
O2CA C1CA 1_555 1_555
C3CA C3U 1_555 1_555
H1CA C3CA 1_555 1_555
O1A Th1 1_555 1_555
O2A Th1 1_555 1_555
C1A O2A 1_555 1_555
C2A C1A 1_555 1_555
C3A C2A 1_555 1_555
H1A C3A 1_555 1_555
O2M C1A 1_555 1_555
C3M C2A 1_555 1_555
H1M C3M 1_555 1_555
O2KB C1KB 1_555 1_555
C1KB C2KB 1_555 1_555
C2KB C3KB 1_555 1_555
C3KB C3A 1_555 1_555
H1KB C3KB 1_555 1_555
O2NB C1KB 1_555 1_555
C3NB C3M 1_555 1_555
H1NB C3NB 1_555 1_555
O1B Th1 1_555 1_555
O2B Th1 1_555 1_555
C1B O2B 1_555 1_555
C2B C1B 1_555 1_555
C3B C2B 1_555 1_555
H1B C3B 1_555 1_555
O2F C1B 1_555 1_555
C3F C2B 1_555 1_555
H1F C3F 1_555 1_555
O2BA C1BA 1_555 1_555
C1BA C2BA 1_555 1_555
C2BA C3BA 1_555 1_555
C3BA C3B 1_555 1_555
H1BA C3BA 1_555 1_555
O2FA C1BA 1_555 1_555
C3FA C3F 1_555 1_555
H1FA C3FA 1_555 1_555
O1C Th1 1_555 1_555
Th1D O2U 1_555 1_555
O3D Th1D 1_555 1_555
Th1F O1A 1_555 1_555
O3F Th1F 1_555 1_555
Th1G O1 1_555 1_555
Th1I O1A 1_555 1_555
Th1BA O2BA 1_555 1_555
Th1CA O2FA 1_555 1_555
Th1CA_2 O2CA 1_555 1_555
Th1DA O2RA 1_555 1_555
Th1AB O2NB 1_555 1_555
Th1EB O2KB 1_555 1_555
O1E Th1D 1_555 1_555
O1F Th1F 1_555 1_555
O1H Th1F 1_555 1_555
O1S Th1D 1_555 1_555
O2C Th1 1_555 1_555
O2D Th1D 1_555 1_555
O2K Th1F 1_555 1_555
O2L Th1D 1_555 1_555
O2N Th1F 1_555 1_555
O2Q Th1D 1_555 1_555
O2T Th1F 1_555 1_555
C2CA C3CA 1_555 1_555
O2M Th1G 1_555 1_555
C2KB C3NB 1_555 1_555
O1B Th1D 1_555 1_555
O1B Th1I 1_555 1_555
O2F Th1F 1_555 1_555
C2BA C3FA 1_555 1_555
O1C Th1D 1_555 1_555
O1C Th1G 1_555 1_555
Th1G O1E 1_555 1_555
Th1G O1F 1_555 1_555
Th1I O1H 1_555 1_555
Th1I O1S 1_555 1_555

#END
