
#######################################################################
#
#                 Cambridge Crystallographic Data Centre
#                                CCDC 
#
#######################################################################
#
# If this CIF has been generated from an entry in the Cambridge 
# Structural Database, then it will include bibliographic, chemical, 
# crystal, experimental, refinement or atomic coordinate data resulting 
# from the CCDC's data processing and validation procedures.
#
#######################################################################

data_JUWWIK
_chemical_name_common            Th-UiO-66-Br2
_chemical_formula_moiety         '(C24 H14 Br6 O19 Th3)n,28(H2 O1)'
_chemical_name_systematic        
'catena-[tris(\m-2,5-dibromobenzene-1,4-dicarboxylato)-bis(\m-oxido)-bis(\m-hydroxido)-triaqua-tri-thorium(iv) octacosahydrate]'
_symmetry_cell_setting           cubic
_symmetry_space_group_name_H-M   'F m -3 m'
_symmetry_Int_Tables_number      225
_space_group_name_Hall           '-F 4 2 3'
loop_
_symmetry_equiv_pos_site_id
_symmetry_equiv_pos_as_xyz
1 x,y,z
2 -x,-y,z
3 -x,y,-z
4 x,-y,-z
5 z,x,y
6 z,-x,-y
7 -z,-x,y
8 -z,x,-y
9 y,z,x
10 -y,z,-x
11 y,-z,-x
12 -y,-z,x
13 y,x,-z
14 -y,-x,-z
15 y,-x,z
16 -y,x,z
17 x,z,-y
18 -x,z,y
19 -x,-z,-y
20 x,-z,y
21 z,y,-x
22 z,-y,x
23 -z,y,x
24 -z,-y,-x
25 x,1/2+y,1/2+z
26 -x,1/2-y,1/2+z
27 -x,1/2+y,1/2-z
28 x,1/2-y,1/2-z
29 z,1/2+x,1/2+y
30 z,1/2-x,1/2-y
31 -z,1/2-x,1/2+y
32 -z,1/2+x,1/2-y
33 y,1/2+z,1/2+x
34 -y,1/2+z,1/2-x
35 y,1/2-z,1/2-x
36 -y,1/2-z,1/2+x
37 y,1/2+x,1/2-z
38 -y,1/2-x,1/2-z
39 y,1/2-x,1/2+z
40 -y,1/2+x,1/2+z
41 x,1/2+z,1/2-y
42 -x,1/2+z,1/2+y
43 -x,1/2-z,1/2-y
44 x,1/2-z,1/2+y
45 z,1/2+y,1/2-x
46 z,1/2-y,1/2+x
47 -z,1/2+y,1/2+x
48 -z,1/2-y,1/2-x
49 1/2+x,y,1/2+z
50 1/2-x,-y,1/2+z
51 1/2-x,y,1/2-z
52 1/2+x,-y,1/2-z
53 1/2+z,x,1/2+y
54 1/2+z,-x,1/2-y
55 1/2-z,-x,1/2+y
56 1/2-z,x,1/2-y
57 1/2+y,z,1/2+x
58 1/2-y,z,1/2-x
59 1/2+y,-z,1/2-x
60 1/2-y,-z,1/2+x
61 1/2+y,x,1/2-z
62 1/2-y,-x,1/2-z
63 1/2+y,-x,1/2+z
64 1/2-y,x,1/2+z
65 1/2+x,z,1/2-y
66 1/2-x,z,1/2+y
67 1/2-x,-z,1/2-y
68 1/2+x,-z,1/2+y
69 1/2+z,y,1/2-x
70 1/2+z,-y,1/2+x
71 1/2-z,y,1/2+x
72 1/2-z,-y,1/2-x
73 1/2+x,1/2+y,z
74 1/2-x,1/2-y,z
75 1/2-x,1/2+y,-z
76 1/2+x,1/2-y,-z
77 1/2+z,1/2+x,y
78 1/2+z,1/2-x,-y
79 1/2-z,1/2-x,y
80 1/2-z,1/2+x,-y
81 1/2+y,1/2+z,x
82 1/2-y,1/2+z,-x
83 1/2+y,1/2-z,-x
84 1/2-y,1/2-z,x
85 1/2+y,1/2+x,-z
86 1/2-y,1/2-x,-z
87 1/2+y,1/2-x,z
88 1/2-y,1/2+x,z
89 1/2+x,1/2+z,-y
90 1/2-x,1/2+z,y
91 1/2-x,1/2-z,-y
92 1/2+x,1/2-z,y
93 1/2+z,1/2+y,-x
94 1/2+z,1/2-y,x
95 1/2-z,1/2+y,x
96 1/2-z,1/2-y,-x
97 -x,-y,-z
98 x,y,-z
99 x,-y,z
100 -x,y,z
101 -z,-x,-y
102 -z,x,y
103 z,x,-y
104 z,-x,y
105 -y,-z,-x
106 y,-z,x
107 -y,z,x
108 y,z,-x
109 -y,-x,z
110 y,x,z
111 -y,x,-z
112 y,-x,-z
113 -x,-z,y
114 x,-z,-y
115 x,z,y
116 -x,z,-y
117 -z,-y,x
118 -z,y,-x
119 z,-y,-x
120 z,y,x
121 -x,1/2-y,1/2-z
122 x,1/2+y,1/2-z
123 x,1/2-y,1/2+z
124 -x,1/2+y,1/2+z
125 -z,1/2-x,1/2-y
126 -z,1/2+x,1/2+y
127 z,1/2+x,1/2-y
128 z,1/2-x,1/2+y
129 -y,1/2-z,1/2-x
130 y,1/2-z,1/2+x
131 -y,1/2+z,1/2+x
132 y,1/2+z,1/2-x
133 -y,1/2-x,1/2+z
134 y,1/2+x,1/2+z
135 -y,1/2+x,1/2-z
136 y,1/2-x,1/2-z
137 -x,1/2-z,1/2+y
138 x,1/2-z,1/2-y
139 x,1/2+z,1/2+y
140 -x,1/2+z,1/2-y
141 -z,1/2-y,1/2+x
142 -z,1/2+y,1/2-x
143 z,1/2-y,1/2-x
144 z,1/2+y,1/2+x
145 1/2-x,-y,1/2-z
146 1/2+x,y,1/2-z
147 1/2+x,-y,1/2+z
148 1/2-x,y,1/2+z
149 1/2-z,-x,1/2-y
150 1/2-z,x,1/2+y
151 1/2+z,x,1/2-y
152 1/2+z,-x,1/2+y
153 1/2-y,-z,1/2-x
154 1/2+y,-z,1/2+x
155 1/2-y,z,1/2+x
156 1/2+y,z,1/2-x
157 1/2-y,-x,1/2+z
158 1/2+y,x,1/2+z
159 1/2-y,x,1/2-z
160 1/2+y,-x,1/2-z
161 1/2-x,-z,1/2+y
162 1/2+x,-z,1/2-y
163 1/2+x,z,1/2+y
164 1/2-x,z,1/2-y
165 1/2-z,-y,1/2+x
166 1/2-z,y,1/2-x
167 1/2+z,-y,1/2-x
168 1/2+z,y,1/2+x
169 1/2-x,1/2-y,-z
170 1/2+x,1/2+y,-z
171 1/2+x,1/2-y,z
172 1/2-x,1/2+y,z
173 1/2-z,1/2-x,-y
174 1/2-z,1/2+x,y
175 1/2+z,1/2+x,-y
176 1/2+z,1/2-x,y
177 1/2-y,1/2-z,-x
178 1/2+y,1/2-z,x
179 1/2-y,1/2+z,x
180 1/2+y,1/2+z,-x
181 1/2-y,1/2-x,z
182 1/2+y,1/2+x,z
183 1/2-y,1/2+x,-z
184 1/2+y,1/2-x,-z
185 1/2-x,1/2-z,y
186 1/2+x,1/2-z,-y
187 1/2+x,1/2+z,y
188 1/2-x,1/2+z,-y
189 1/2-z,1/2-y,x
190 1/2-z,1/2+y,-x
191 1/2+z,1/2-y,-x
192 1/2+z,1/2+y,x
_cell_length_a                   22.0217(13)
_cell_length_b                   22.0217(13)
_cell_length_c                   22.0217(13)
_cell_angle_alpha                90
_cell_angle_beta                 90
_cell_angle_gamma                90
_cell_volume                     10679.5
_exptl_crystal_colour            colorless
_exptl_crystal_description       octahedral
_cell_formula_units_Z            10
loop_
_atom_site_label
_atom_site_type_symbol
_atom_site_fract_x
_atom_site_fract_y
_atom_site_fract_z
O4 O 0.3785(6) 0.8785(6) 0.6215(6)
O5 O 0.4461(8) 0.8025(8) 0.6227(7)
C1 C 0.3436(7) 0.6564(7) 0.5000
C2 C 0.2951(3) 0.7049(3) 0.5000
C3 C 0.27228(16) 0.72772(16) 0.5538(6)
H1 H 0.2873 0.7127 0.5913
O1 O 0.399(3) 0.677(3) 0.5000
O2 O 0.4304(8) 0.5696(8) 0.5696(8)
O3 O 0.5000 0.7473(19) 0.5000
Th1 Th 0.5000 0.62596(3) 0.5000
C3M C 0.27228(16) 0.72772(16) 0.4462(6)
H1M H 0.2873 0.7127 0.4087
O1M O 0.323(3) 0.601(3) 0.5000
C1UB C 0.1564(7) 0.8436(7) 0.5000
C2UB C 0.2049(3) 0.7951(3) 0.5000
C3UB C 0.22772(16) 0.77228(16) 0.5538(6)
H1UB H 0.2127 0.7873 0.5913
O1UB O 0.101(3) 0.823(3) 0.5000
C3FC C 0.22772(16) 0.77228(16) 0.4462(6)
H1FC H 0.2127 0.7873 0.4087
O1FC O 0.177(3) 0.899(3) 0.5000
C1B C 0.6564(7) 0.6564(7) 0.5000
C2B C 0.7049(3) 0.7049(3) 0.5000
C3B C 0.72772(16) 0.72772(16) 0.4462(6)
H1B H 0.7127 0.7127 0.4087
O1B O 0.601(3) 0.677(3) 0.5000
O2B O 0.5696(8) 0.5696(8) 0.4304(8)
C3N C 0.72772(16) 0.72772(16) 0.5538(6)
H1N H 0.7127 0.7127 0.5913
O1N O 0.677(3) 0.601(3) 0.5000
C1WB C 0.8436(7) 0.8436(7) 0.5000
C2WB C 0.7951(3) 0.7951(3) 0.5000
C3WB C 0.77228(16) 0.77228(16) 0.4462(6)
H1WB H 0.7873 0.7873 0.4087
O1WB O 0.899(3) 0.823(3) 0.5000
C3IC C 0.77228(16) 0.77228(16) 0.5538(6)
H1IC H 0.7873 0.7873 0.5913
O1IC O 0.823(3) 0.899(3) 0.5000
C1D C 0.5000 0.3436(7) 0.6564(7)
C2D C 0.5000 0.2951(3) 0.7049(3)
C3D C 0.5538(6) 0.27228(16) 0.72772(16)
H1D H 0.5913 0.2873 0.7127
O1D O 0.5000 0.399(3) 0.677(3)
O2A O 0.5696(8) 0.4304(8) 0.5696(8)
O3D O 0.5000 0.5000 0.7473(19)
Th1D Th 0.5000 0.5000 0.62596(3)
C3W C 0.4462(6) 0.27228(16) 0.72772(16)
H1W H 0.4087 0.2873 0.7127
O1W O 0.5000 0.323(3) 0.601(3)
C1CA C 0.5000 0.1564(7) 0.8436(7)
C2CA C 0.5000 0.2049(3) 0.7951(3)
C3CA C 0.5538(6) 0.22772(16) 0.77228(16)
H1CA H 0.5913 0.2127 0.7873
O1CA O 0.5000 0.101(3) 0.823(3)
C3TA C 0.4462(6) 0.22772(16) 0.77228(16)
H1TA H 0.4087 0.2127 0.7873
O1TA O 0.5000 0.177(3) 0.899(3)
O3E O 0.5000 0.5000 0.2527(19)
Th1E Th 0.5000 0.5000 0.37404(3)
O2C O 0.4304(8) 0.4304(8) 0.4304(8)
O1E O 0.5000 0.601(3) 0.323(3)
O1F O 0.5000 0.601(3) 0.677(3)
O1G O 0.5000 0.399(3) 0.323(3)
O1P O 0.399(3) 0.5000 0.323(3)
O1Q O 0.601(3) 0.5000 0.677(3)
O1R O 0.601(3) 0.5000 0.323(3)
O1S O 0.399(3) 0.5000 0.677(3)
O1T O 0.5000 0.677(3) 0.601(3)
O1V O 0.5000 0.677(3) 0.399(3)
O2L O 0.5696(8) 0.4304(8) 0.4304(8)
O2M O 0.4304(8) 0.5696(8) 0.4304(8)
O2N O 0.5696(8) 0.5696(8) 0.5696(8)
O2O O 0.4304(8) 0.4304(8) 0.5696(8)
Th1A Th 0.5000 0.37404(3) 0.5000
Th1H Th 0.62596(3) 0.5000 0.5000
Th1I Th 0.37404(3) 0.5000 0.5000
Th1X Th 0.5000 0.12596(3) 1.0000
Th1CA Th 0.5000 0.0000 0.87404(3)
Th1UB Th 0.0000 0.87404(3) 0.5000
Th1UB_2 Th 1.0000 0.87404(3) 0.5000
Th1BC Th 0.12596(3) 1.0000 0.5000
Th1CC Th 0.87404(3) 1.0000 0.5000
Br1? Br 0.3020(6) 0.6980(6) 0.6289(8)
O6? O 0.4492(7) 0.5508(7) 0.5508(7)
loop_
_geom_bond_atom_site_label_1
_geom_bond_atom_site_label_2
_geom_bond_site_symmetry_1
_geom_bond_site_symmetry_2
C1 C2 1_555 1_555
C2 C3 1_555 1_555
C3 H1 1_555 1_555
O1 C1 1_555 1_555
O2 Th1 1_555 1_555
O3 Th1 1_555 1_555
Th1 O1 1_555 1_555
C3M C2 1_555 1_555
H1M C3M 1_555 1_555
O1M C1 1_555 1_555
C1UB C2UB 1_555 1_555
C2UB C3UB 1_555 1_555
C3UB C3 1_555 1_555
H1UB C3UB 1_555 1_555
O1UB C1UB 1_555 1_555
C3FC C3M 1_555 1_555
H1FC C3FC 1_555 1_555
O1FC C1UB 1_555 1_555
C1B C2B 1_555 1_555
C2B C3B 1_555 1_555
C3B H1B 1_555 1_555
O1B Th1 1_555 1_555
O2B Th1 1_555 1_555
C3N C2B 1_555 1_555
H1N C3N 1_555 1_555
O1N C1B 1_555 1_555
C1WB C2WB 1_555 1_555
C2WB C3WB 1_555 1_555
C3WB C3B 1_555 1_555
H1WB C3WB 1_555 1_555
O1WB C1WB 1_555 1_555
C3IC C3N 1_555 1_555
H1IC C3IC 1_555 1_555
O1IC C1WB 1_555 1_555
C1D C2D 1_555 1_555
C2D C3D 1_555 1_555
C3D H1D 1_555 1_555
O1D C1D 1_555 1_555
O2A Th1D 1_555 1_555
O3D Th1D 1_555 1_555
Th1D O2 1_555 1_555
C3W C2D 1_555 1_555
H1W C3W 1_555 1_555
O1W C1D 1_555 1_555
C1CA C2CA 1_555 1_555
C2CA C3CA 1_555 1_555
C3CA C3D 1_555 1_555
H1CA C3CA 1_555 1_555
O1CA C1CA 1_555 1_555
C3TA C3W 1_555 1_555
H1TA C3TA 1_555 1_555
O1TA C1CA 1_555 1_555
O3E Th1E 1_555 1_555
Th1E O2B 1_555 1_555
O2C Th1E 1_555 1_555
O1E Th1E 1_555 1_555
O1F Th1D 1_555 1_555
O1G Th1E 1_555 1_555
O1P Th1E 1_555 1_555
O1Q Th1D 1_555 1_555
O1R Th1E 1_555 1_555
O1S Th1D 1_555 1_555
O1T Th1 1_555 1_555
O1V Th1 1_555 1_555
O2L Th1E 1_555 1_555
O2M Th1 1_555 1_555
O2N Th1 1_555 1_555
O2O Th1D 1_555 1_555
Th1A O2A 1_555 1_555
Th1H O2B 1_555 1_555
Th1I O2 1_555 1_555
Th1X O1TA 1_555 1_555
Th1CA O1CA 1_555 1_555
Th1UB O1UB 1_555 1_555
Th1UB_2 O1WB 1_555 1_555
Th1BC O1FC 1_555 1_555
Th1CC O1IC 1_555 1_555
O1M Th1I 1_555 1_555
C2UB C3FC 1_555 1_555
C1B O1B 1_555 1_555
O1N Th1H 1_555 1_555
C2WB C3IC 1_555 1_555
O1D Th1D 1_555 1_555
O2A Th1H 1_555 1_555
Th1D O2N 1_555 1_555
O1W Th1A 1_555 1_555
C2CA C3TA 1_555 1_555
Th1E O2M 1_555 1_555
O2C Th1A 1_555 1_555
O2C Th1I 1_555 1_555
O2L Th1A 1_555 1_555
O2L Th1H 1_555 1_555
O2M Th1I 1_555 1_555
O2N Th1H 1_555 1_555
O2O Th1A 1_555 1_555
O2O Th1I 1_555 1_555

#END
