
#######################################################################
#
#                 Cambridge Crystallographic Data Centre
#                                CCDC 
#
#######################################################################
#
# If this CIF has been generated from an entry in the Cambridge 
# Structural Database, then it will include bibliographic, chemical, 
# crystal, experimental, refinement or atomic coordinate data resulting 
# from the CCDC's data processing and validation procedures.
#
#######################################################################

data_IFERUI
_chemical_formula_moiety         
'C2 H8 N1 1+,3(C14 H7 F1 N4 O2 2-),4(H1 O1 1-),3(H2 O1),3(Y1 3+)'
_chemical_name_systematic        
"Dimethylammonium tri-yttrium tris(4'-(tetrazol-2-id-5-yl)-3-fluorobiphenyl-4-carboxylate) tetrahydroxide trihydrate unknown solvate"
_symmetry_cell_setting           cubic
_symmetry_space_group_name_H-M   'F m -3 m'
_symmetry_Int_Tables_number      225
_space_group_name_Hall           '-F 4 2 3'
loop_
_symmetry_equiv_pos_site_id
_symmetry_equiv_pos_as_xyz
1 x,y,z
2 -x,-y,z
3 -x,y,-z
4 x,-y,-z
5 z,x,y
6 z,-x,-y
7 -z,-x,y
8 -z,x,-y
9 y,z,x
10 -y,z,-x
11 y,-z,-x
12 -y,-z,x
13 y,x,-z
14 -y,-x,-z
15 y,-x,z
16 -y,x,z
17 x,z,-y
18 -x,z,y
19 -x,-z,-y
20 x,-z,y
21 z,y,-x
22 z,-y,x
23 -z,y,x
24 -z,-y,-x
25 x,1/2+y,1/2+z
26 -x,1/2-y,1/2+z
27 -x,1/2+y,1/2-z
28 x,1/2-y,1/2-z
29 z,1/2+x,1/2+y
30 z,1/2-x,1/2-y
31 -z,1/2-x,1/2+y
32 -z,1/2+x,1/2-y
33 y,1/2+z,1/2+x
34 -y,1/2+z,1/2-x
35 y,1/2-z,1/2-x
36 -y,1/2-z,1/2+x
37 y,1/2+x,1/2-z
38 -y,1/2-x,1/2-z
39 y,1/2-x,1/2+z
40 -y,1/2+x,1/2+z
41 x,1/2+z,1/2-y
42 -x,1/2+z,1/2+y
43 -x,1/2-z,1/2-y
44 x,1/2-z,1/2+y
45 z,1/2+y,1/2-x
46 z,1/2-y,1/2+x
47 -z,1/2+y,1/2+x
48 -z,1/2-y,1/2-x
49 1/2+x,y,1/2+z
50 1/2-x,-y,1/2+z
51 1/2-x,y,1/2-z
52 1/2+x,-y,1/2-z
53 1/2+z,x,1/2+y
54 1/2+z,-x,1/2-y
55 1/2-z,-x,1/2+y
56 1/2-z,x,1/2-y
57 1/2+y,z,1/2+x
58 1/2-y,z,1/2-x
59 1/2+y,-z,1/2-x
60 1/2-y,-z,1/2+x
61 1/2+y,x,1/2-z
62 1/2-y,-x,1/2-z
63 1/2+y,-x,1/2+z
64 1/2-y,x,1/2+z
65 1/2+x,z,1/2-y
66 1/2-x,z,1/2+y
67 1/2-x,-z,1/2-y
68 1/2+x,-z,1/2+y
69 1/2+z,y,1/2-x
70 1/2+z,-y,1/2+x
71 1/2-z,y,1/2+x
72 1/2-z,-y,1/2-x
73 1/2+x,1/2+y,z
74 1/2-x,1/2-y,z
75 1/2-x,1/2+y,-z
76 1/2+x,1/2-y,-z
77 1/2+z,1/2+x,y
78 1/2+z,1/2-x,-y
79 1/2-z,1/2-x,y
80 1/2-z,1/2+x,-y
81 1/2+y,1/2+z,x
82 1/2-y,1/2+z,-x
83 1/2+y,1/2-z,-x
84 1/2-y,1/2-z,x
85 1/2+y,1/2+x,-z
86 1/2-y,1/2-x,-z
87 1/2+y,1/2-x,z
88 1/2-y,1/2+x,z
89 1/2+x,1/2+z,-y
90 1/2-x,1/2+z,y
91 1/2-x,1/2-z,-y
92 1/2+x,1/2-z,y
93 1/2+z,1/2+y,-x
94 1/2+z,1/2-y,x
95 1/2-z,1/2+y,x
96 1/2-z,1/2-y,-x
97 -x,-y,-z
98 x,y,-z
99 x,-y,z
100 -x,y,z
101 -z,-x,-y
102 -z,x,y
103 z,x,-y
104 z,-x,y
105 -y,-z,-x
106 y,-z,x
107 -y,z,x
108 y,z,-x
109 -y,-x,z
110 y,x,z
111 -y,x,-z
112 y,-x,-z
113 -x,-z,y
114 x,-z,-y
115 x,z,y
116 -x,z,-y
117 -z,-y,x
118 -z,y,-x
119 z,-y,-x
120 z,y,x
121 -x,1/2-y,1/2-z
122 x,1/2+y,1/2-z
123 x,1/2-y,1/2+z
124 -x,1/2+y,1/2+z
125 -z,1/2-x,1/2-y
126 -z,1/2+x,1/2+y
127 z,1/2+x,1/2-y
128 z,1/2-x,1/2+y
129 -y,1/2-z,1/2-x
130 y,1/2-z,1/2+x
131 -y,1/2+z,1/2+x
132 y,1/2+z,1/2-x
133 -y,1/2-x,1/2+z
134 y,1/2+x,1/2+z
135 -y,1/2+x,1/2-z
136 y,1/2-x,1/2-z
137 -x,1/2-z,1/2+y
138 x,1/2-z,1/2-y
139 x,1/2+z,1/2+y
140 -x,1/2+z,1/2-y
141 -z,1/2-y,1/2+x
142 -z,1/2+y,1/2-x
143 z,1/2-y,1/2-x
144 z,1/2+y,1/2+x
145 1/2-x,-y,1/2-z
146 1/2+x,y,1/2-z
147 1/2+x,-y,1/2+z
148 1/2-x,y,1/2+z
149 1/2-z,-x,1/2-y
150 1/2-z,x,1/2+y
151 1/2+z,x,1/2-y
152 1/2+z,-x,1/2+y
153 1/2-y,-z,1/2-x
154 1/2+y,-z,1/2+x
155 1/2-y,z,1/2+x
156 1/2+y,z,1/2-x
157 1/2-y,-x,1/2+z
158 1/2+y,x,1/2+z
159 1/2-y,x,1/2-z
160 1/2+y,-x,1/2-z
161 1/2-x,-z,1/2+y
162 1/2+x,-z,1/2-y
163 1/2+x,z,1/2+y
164 1/2-x,z,1/2-y
165 1/2-z,-y,1/2+x
166 1/2-z,y,1/2-x
167 1/2+z,-y,1/2-x
168 1/2+z,y,1/2+x
169 1/2-x,1/2-y,-z
170 1/2+x,1/2+y,-z
171 1/2+x,1/2-y,z
172 1/2-x,1/2+y,z
173 1/2-z,1/2-x,-y
174 1/2-z,1/2+x,y
175 1/2+z,1/2+x,-y
176 1/2+z,1/2-x,y
177 1/2-y,1/2-z,-x
178 1/2+y,1/2-z,x
179 1/2-y,1/2+z,x
180 1/2+y,1/2+z,-x
181 1/2-y,1/2-x,z
182 1/2+y,1/2+x,z
183 1/2-y,1/2+x,-z
184 1/2+y,1/2-x,-z
185 1/2-x,1/2-z,y
186 1/2+x,1/2-z,-y
187 1/2+x,1/2+z,y
188 1/2-x,1/2+z,-y
189 1/2-z,1/2-y,x
190 1/2-z,1/2+y,-x
191 1/2+z,1/2-y,-x
192 1/2+z,1/2+y,x
_cell_length_a                   29.447(3)
_cell_length_b                   29.447(3)
_cell_length_c                   29.447(3)
_cell_angle_alpha                90
_cell_angle_beta                 90
_cell_angle_gamma                90
_cell_volume                     25534.3
_exptl_crystal_colour            colorless
_exptl_crystal_description       polyhedron
_cell_formula_units_Z            8
loop_
_atom_site_label
_atom_site_type_symbol
_atom_site_fract_x
_atom_site_fract_y
_atom_site_fract_z
O1 O 0.45754(5) 0.54246(5) 0.45754(5)
O2 O 0.5000 0.5000 0.32427(17)
O3 O 0.5000 0.5715(3) 0.3747(3)
N1 N 0.5000 0.5828(3) 0.3857(2)
N2 N 0.5000 0.60222(18) 0.34479(17)
C1 C 0.5000 0.6124(3) 0.3876(3)
C2 C 0.5000 0.64720(11) 0.35280(11)
C3 C 0.5116(2) 0.6379(3) 0.3079(4)
H1 H 0.5194 0.6084 0.3001
C4 C 0.5117(2) 0.67138(18) 0.27393(18)
C5 C 0.5000 0.7152(3) 0.2848(3)
C6 C 0.5000 0.7500 0.2500
C7 C 0.5118(3) 0.7045(4) 0.2405(3)
C8 C 0.5000 0.6819(2) 0.3181(2)
F1 F 0.5239(5) 0.5954(5) 0.2934(6)
O3R O 0.5000 0.6253(3) 0.4285(3)
N1R N 0.5000 0.6143(2) 0.4172(3)
N2R N 0.5000 0.65521(17) 0.39778(18)
C3R C 0.4884(2) 0.6921(4) 0.3621(3)
H1R H 0.4806 0.6999 0.3916
C4R C 0.4883(2) 0.72607(18) 0.32862(18)
C7R C 0.4882(3) 0.7595(3) 0.2955(4)
F1R F 0.4761(5) 0.7066(6) 0.4046(5)
O3AA O 0.5000 0.9285(3) 0.1253(3)
N1AA N 0.5000 0.9172(3) 0.1143(2)
N2AA N 0.5000 0.89778(18) 0.15521(17)
C1AA C 0.5000 0.8876(3) 0.1124(3)
C2AA C 0.5000 0.85280(11) 0.14720(11)
C3AA C 0.5116(2) 0.8621(3) 0.1921(4)
H1AA H 0.5194 0.8916 0.1999
C4AA C 0.5117(2) 0.82862(18) 0.22607(18)
C5AA C 0.5000 0.7848(3) 0.2152(3)
C7AA C 0.5118(3) 0.7955(4) 0.2595(3)
C8AA C 0.5000 0.8181(2) 0.1819(2)
F1AA F 0.5239(5) 0.9046(5) 0.2066(6)
O3OA O 0.5000 0.8747(3) 0.0715(3)
N1OA N 0.5000 0.8857(2) 0.0828(3)
N2OA N 0.5000 0.84479(17) 0.10222(18)
C3OA C 0.4884(2) 0.8079(4) 0.1379(3)
H1OA H 0.4806 0.8001 0.1084
C4OA C 0.4883(2) 0.77393(18) 0.17138(18)
C7OA C 0.4882(3) 0.7405(3) 0.2045(4)
F1OA F 0.4761(5) 0.7934(6) 0.0954(5)
C3UC C 0.4884(2) 0.6379(3) 0.3079(4)
H1UC H 0.4806 0.6084 0.3001
C4UC C 0.4883(2) 0.67138(18) 0.27393(18)
C7UC C 0.4882(3) 0.7045(4) 0.2405(3)
F1UC F 0.4761(5) 0.5954(5) 0.2934(6)
C3ID C 0.5116(2) 0.6921(4) 0.3621(3)
H1ID H 0.5194 0.6999 0.3916
C4ID C 0.5117(2) 0.72607(18) 0.32862(18)
C7ID C 0.5118(3) 0.7595(3) 0.2955(4)
F1ID F 0.5239(5) 0.7066(6) 0.4046(5)
C3PD C 0.4884(2) 0.8621(3) 0.1921(4)
H1PD H 0.4806 0.8916 0.1999
C4PD C 0.4883(2) 0.82862(18) 0.22607(18)
C7PD C 0.4882(3) 0.7955(4) 0.2595(3)
F1PD F 0.4761(5) 0.9046(5) 0.2066(6)
C3HE C 0.5116(2) 0.8079(4) 0.1379(3)
H1HE H 0.5194 0.8001 0.1084
C4HE C 0.5117(2) 0.77393(18) 0.17138(18)
C7HE C 0.5118(3) 0.7405(3) 0.2045(4)
F1HE F 0.5239(5) 0.7934(6) 0.0954(5)
Y1 Y 0.5000 0.5000 0.407064(13)
H2? H 0.5194 0.6641 0.2443
H3? H 0.5199(5) 0.6419(4) 0.2656(11)
H4? H 0.5197(5) 0.6971(8) 0.2109(5)
loop_
_geom_bond_atom_site_label_1
_geom_bond_atom_site_label_2
_geom_bond_site_symmetry_1
_geom_bond_site_symmetry_2
O3 N2 1_555 1_555
N1 N2 1_555 1_555
N2 C1 1_555 1_555
C1 O3 1_555 1_555
C2 N2 1_555 1_555
C3 N2 1_555 1_555
H1 C3 1_555 1_555
C4 C3 1_555 1_555
C5 C4 1_555 1_555
C6 C5 1_555 1_555
C7 C4 1_555 1_555
C8 C2 1_555 1_555
F1 N2 1_555 1_555
O3R N1 1_555 1_555
N1R O3 1_555 1_555
N2R C1 1_555 1_555
C3R C2 1_555 1_555
H1R C3R 1_555 1_555
C4R C5 1_555 1_555
C7R C5 1_555 1_555
F1R N2R 1_555 1_555
O3AA N2AA 1_555 1_555
N1AA N2AA 1_555 1_555
N2AA C1AA 1_555 1_555
C1AA O3AA 1_555 1_555
C2AA N2AA 1_555 1_555
C3AA N2AA 1_555 1_555
H1AA C3AA 1_555 1_555
C4AA C3AA 1_555 1_555
C5AA C6 1_555 1_555
C7AA C6 1_555 1_555
C8AA C2AA 1_555 1_555
F1AA N2AA 1_555 1_555
O3OA N1AA 1_555 1_555
N1OA O3AA 1_555 1_555
N2OA C1AA 1_555 1_555
C3OA C2AA 1_555 1_555
H1OA C3OA 1_555 1_555
C4OA C5AA 1_555 1_555
C7OA C6 1_555 1_555
F1OA N2OA 1_555 1_555
C3UC N2 1_555 1_555
H1UC C3 1_555 1_555
C4UC C3 1_555 1_555
C7UC C4 1_555 1_555
F1UC N2 1_555 1_555
C3ID C2 1_555 1_555
H1ID C3R 1_555 1_555
C4ID C5 1_555 1_555
C7ID C5 1_555 1_555
F1ID N2R 1_555 1_555
C3PD N2AA 1_555 1_555
H1PD C3AA 1_555 1_555
C4PD C3AA 1_555 1_555
C7PD C6 1_555 1_555
F1PD N2AA 1_555 1_555
C3HE C2AA 1_555 1_555
H1HE C3OA 1_555 1_555
C4HE C5AA 1_555 1_555
C7HE C6 1_555 1_555
F1HE N2OA 1_555 1_555
N1 C1 1_555 1_555
N1 N1R 1_555 1_555
C1 C2 1_555 1_555
C1 O3R 1_555 1_555
C1 N1R 1_555 1_555
C2 C3 1_555 1_555
C2 N2R 1_555 1_555
C2 C3UC 1_555 1_555
C3 C8 1_555 1_555
C3 F1 1_555 1_555
C3 C3UC 1_555 1_555
C3 F1UC 1_555 1_555
H1 C3UC 1_555 1_555
C4 C8 1_555 1_555
C4 C3UC 1_555 1_555
C4 C4UC 1_555 1_555
C5 C7 1_555 1_555
C5 C8 1_555 1_555
C5 C4UC 1_555 1_555
C5 C7UC 1_555 1_555
C6 C7 1_555 1_555
C6 C7R 1_555 1_555
C6 C7UC 1_555 1_555
C6 C7ID 1_555 1_555
C7 C7OA 1_555 1_555
C7 C4UC 1_555 1_555
C7 C7UC 1_555 1_555
C7 C7HE 1_555 1_555
C8 C3R 1_555 1_555
C8 C4R 1_555 1_555
C8 C3UC 1_555 1_555
C8 C4UC 1_555 1_555
C8 C3ID 1_555 1_555
C8 C4ID 1_555 1_555
F1 C3UC 1_555 1_555
F1 F1UC 1_555 1_555
O3R N2R 1_555 1_555
N1R N2R 1_555 1_555
N2R C3R 1_555 1_555
N2R C3ID 1_555 1_555
C3R C4R 1_555 1_555
C3R F1R 1_555 1_555
C3R C3ID 1_555 1_555
C3R C4ID 1_555 1_555
C3R F1ID 1_555 1_555
H1R C3ID 1_555 1_555
C4R C7R 1_555 1_555
C4R C3ID 1_555 1_555
C4R C4ID 1_555 1_555
C4R C7ID 1_555 1_555
C7R C7AA 1_555 1_555
C7R C4ID 1_555 1_555
C7R C7ID 1_555 1_555
C7R C7PD 1_555 1_555
F1R C3ID 1_555 1_555
F1R F1ID 1_555 1_555
N1AA C1AA 1_555 1_555
N1AA N1OA 1_555 1_555
C1AA C2AA 1_555 1_555
C1AA O3OA 1_555 1_555
C1AA N1OA 1_555 1_555
C2AA C3AA 1_555 1_555
C2AA N2OA 1_555 1_555
C2AA C3PD 1_555 1_555
C3AA C8AA 1_555 1_555
C3AA F1AA 1_555 1_555
C3AA C3PD 1_555 1_555
C3AA F1PD 1_555 1_555
H1AA C3PD 1_555 1_555
C4AA C5AA 1_555 1_555
C4AA C7AA 1_555 1_555
C4AA C8AA 1_555 1_555
C4AA C3PD 1_555 1_555
C4AA C4PD 1_555 1_555
C4AA C7PD 1_555 1_555
C5AA C7AA 1_555 1_555
C5AA C8AA 1_555 1_555
C5AA C7OA 1_555 1_555
C5AA C4PD 1_555 1_555
C5AA C7PD 1_555 1_555
C5AA C7HE 1_555 1_555
C7AA C7ID 1_555 1_555
C7AA C4PD 1_555 1_555
C7AA C7PD 1_555 1_555
C8AA C3OA 1_555 1_555
C8AA C4OA 1_555 1_555
C8AA C3PD 1_555 1_555
C8AA C4PD 1_555 1_555
C8AA C3HE 1_555 1_555
C8AA C4HE 1_555 1_555
F1AA C3PD 1_555 1_555
F1AA F1PD 1_555 1_555
O3OA N2OA 1_555 1_555
N1OA N2OA 1_555 1_555
N2OA C3OA 1_555 1_555
N2OA C3HE 1_555 1_555
C3OA C4OA 1_555 1_555
C3OA F1OA 1_555 1_555
C3OA C3HE 1_555 1_555
C3OA C4HE 1_555 1_555
C3OA F1HE 1_555 1_555
H1OA C3HE 1_555 1_555
C4OA C7OA 1_555 1_555
C4OA C3HE 1_555 1_555
C4OA C4HE 1_555 1_555
C4OA C7HE 1_555 1_555
C7OA C7UC 1_555 1_555
C7OA C4HE 1_555 1_555
C7OA C7HE 1_555 1_555
F1OA C3HE 1_555 1_555
F1OA F1HE 1_555 1_555
C3UC H1UC 1_555 1_555
C3UC C4UC 1_555 1_555
C3UC F1UC 1_555 1_555
C4UC C7UC 1_555 1_555
C7UC C7HE 1_555 1_555
C3ID H1ID 1_555 1_555
C3ID C4ID 1_555 1_555
C3ID F1ID 1_555 1_555
C4ID C7ID 1_555 1_555
C7ID C7PD 1_555 1_555
C3PD H1PD 1_555 1_555
C3PD C4PD 1_555 1_555
C3PD F1PD 1_555 1_555
C4PD C7PD 1_555 1_555
C3HE H1HE 1_555 1_555
C3HE C4HE 1_555 1_555
C3HE F1HE 1_555 1_555
C4HE C7HE 1_555 1_555

#END
