
#######################################################################
#
#                 Cambridge Crystallographic Data Centre
#                                CCDC 
#
#######################################################################
#
# If this CIF has been generated from an entry in the Cambridge 
# Structural Database, then it will include bibliographic, chemical, 
# crystal, experimental, refinement or atomic coordinate data resulting 
# from the CCDC's data processing and validation procedures.
#
#######################################################################

data_VEJZOA
_chemical_name_common            ZIF-11
_chemical_formula_moiety         '(C28 H20 N8 Zn2)n,1.89n(H2 O1)'
_chemical_name_systematic        
"catena-(tetrakis(\m~2~-Benzimidazolato-N,N')-di-zinc(ii) unknown clathrate hydrate)"
_symmetry_cell_setting           cubic
_symmetry_space_group_name_H-M   'P m -3 m'
_symmetry_Int_Tables_number      221
_space_group_name_Hall           '-P 4 2 3'
loop_
_symmetry_equiv_pos_site_id
_symmetry_equiv_pos_as_xyz
1 x,y,z
2 z,x,y
3 y,z,x
4 y,x,-z
5 y,-x,z
6 -y,x,z
7 x,z,-y
8 -x,z,y
9 x,-z,y
10 z,y,-x
11 z,-y,x
12 -z,y,x
13 -x,-y,z
14 -x,y,-z
15 x,-y,-z
16 z,-x,-y
17 -z,-x,y
18 -z,x,-y
19 -y,z,-x
20 y,-z,-x
21 -y,-z,x
22 -y,-x,-z
23 -x,-z,-y
24 -z,-y,-x
25 -x,-y,-z
26 -z,-x,-y
27 -y,-z,-x
28 -y,-x,z
29 -y,x,-z
30 y,-x,-z
31 -x,-z,y
32 x,-z,-y
33 -x,z,-y
34 -z,-y,x
35 -z,y,-x
36 z,-y,-x
37 x,y,-z
38 x,-y,z
39 -x,y,z
40 -z,x,y
41 z,x,-y
42 z,-x,y
43 y,-z,x
44 -y,z,x
45 y,z,-x
46 y,x,z
47 x,z,y
48 z,y,x
_cell_length_a                   28.7595(10)
_cell_length_b                   28.7595(10)
_cell_length_c                   28.7595(10)
_cell_angle_alpha                90
_cell_angle_beta                 90
_cell_angle_gamma                90
_cell_volume                     23787.2
_exptl_crystal_colour            colorless
_exptl_crystal_description       cube
_cell_formula_units_Z            24
loop_
_atom_site_label
_atom_site_type_symbol
_atom_site_fract_x
_atom_site_fract_y
_atom_site_fract_z
_atom_site_U_iso_or_equiv
_atom_site_thermal_displace_type
Zn1 Zn 0.39623(3) 0.10429(4) 0.25197(3) 0.0950 Uani
C1 C 0.3950(4) 0.0000 0.2560(4) 0.0937 Uani
H1 H 0.4227 0.0000 0.2728 0.1120 Uiso
C2 C 0.3356(3) 0.0256(3) 0.2215(3) 0.0963 Uani
C3 C 0.2991(4) 0.0500(4) 0.1998(4) 0.1443 Uani
H2 H 0.2986 0.0823 0.1989 0.1730 Uiso
C4 C 0.2652(5) 0.0247(5) 0.1803(6) 0.2350 Uani
H3 H 0.2405 0.0402 0.1662 0.2820 Uiso
C5 C 0.3908(4) 0.1793(3) 0.1793(3) 0.0977 Uani
H4 H 0.3796 0.2007 0.2007 0.1170 Uiso
C6 C 0.4071(8) 0.1096(7) 0.1447(7) 0.1040 Uiso
C7 C 0.4120(7) 0.0632(7) 0.1331(7) 0.1020 Uiso
H5 H 0.4132 0.0400 0.1556 0.2250 Uiso
C8 C 0.4150(7) 0.0533(6) 0.0867(6) 0.1220 Uiso
H6 H 0.4171 0.0224 0.0775 0.2690 Uiso
C9 C 0.3189(3) 0.1113(5) 0.3189(3) 0.0887 Uani
C10 C 0.3554(4) 0.1738(4) 0.3197(3) 0.1153 Uani
C11 C 0.3825(5) 0.2137(5) 0.3139(5) 0.1607 Uani
H7 H 0.4095 0.2154 0.2944 0.1930 Uiso
C12 C 0.3723(14) 0.2564(16) 0.3374(11) 0.1450 Uiso
H8 H 0.3882 0.2836 0.3299 0.4650 Uiso
C13 C 0.4770(5) 0.0808(7) 0.3169(5) 0.1110 Uiso
C14 C 0.4501(6) 0.0584(7) 0.3529(6) 0.1340 Uiso
H9 H 0.4179 0.0602 0.3544 0.5620 Uiso
C15 C 0.4769(5) 0.0334(6) 0.3857(6) 0.1470 Uiso
H10 H 0.4615 0.0162 0.4084 0.6190 Uiso
C16 C 0.5000 0.1106(5) 0.2533(5) 0.1023 Uani
H11 H 0.5000 0.1215 0.2228 0.1230 Uiso
N1 N 0.3751(3) 0.0394(3) 0.2440(3) 0.0923 Uani
N2 N 0.3992(2) 0.1358(3) 0.1906(3) 0.0957 Uani
N3 N 0.3529(3) 0.1312(3) 0.2975(2) 0.0950 Uani
N4 N 0.4607(2) 0.1022(3) 0.2768(3) 0.0987 Uani
Zn1KA Zn 0.39623(3) -0.10429(4) 0.25197(3) 0.0950 Uani
Zn1TA Zn 0.39623(3) 0.25197(3) 0.10429(4) 0.0950 Uani
Zn1UA Zn 0.25197(3) 0.10429(4) 0.39623(3) 0.0950 Uani
Zn1LA Zn 0.60377(3) 0.10429(4) 0.25197(3) 0.0950 Uani
C2KA C 0.3356(3) -0.0256(3) 0.2215(3) 0.0963 Uani
C3KA C 0.2991(4) -0.0500(4) 0.1998(4) 0.1443 Uani
H2KA H 0.2986 -0.0823 0.1989 0.1730 Uiso
C4KA C 0.2652(5) -0.0247(5) 0.1803(6) 0.2350 Uani
H3KA H 0.2405 -0.0402 0.1662 0.2820 Uiso
C6TA C 0.4071(8) 0.1447(7) 0.1096(7) 0.1040 Uiso
C7TA C 0.4120(7) 0.1331(7) 0.0632(7) 0.1020 Uiso
H5TA H 0.4132 0.1556 0.0400 0.2250 Uiso
C8TA C 0.4150(7) 0.0867(6) 0.0533(6) 0.1220 Uiso
H6TA H 0.4171 0.0775 0.0224 0.2690 Uiso
C10UA C 0.3197(3) 0.1738(4) 0.3554(4) 0.1153 Uani
C11UA C 0.3139(5) 0.2137(5) 0.3825(5) 0.1607 Uani
H7UA H 0.2944 0.2154 0.4095 0.1930 Uiso
C12UA C 0.3374(11) 0.2564(16) 0.3723(14) 0.1450 Uiso
H8UA H 0.3299 0.2836 0.3882 0.4650 Uiso
C13LA C 0.5230(5) 0.0808(7) 0.3169(5) 0.1110 Uiso
C14LA C 0.5499(6) 0.0584(7) 0.3529(6) 0.1340 Uiso
H9LA H 0.5821 0.0602 0.3544 0.5620 Uiso
C15LA C 0.5231(5) 0.0334(6) 0.3857(6) 0.1470 Uiso
H10LA H 0.5385 0.0162 0.4084 0.6190 Uiso
N1KA N 0.3751(3) -0.0394(3) 0.2440(3) 0.0923 Uani
N2TA N 0.3992(2) 0.1906(3) 0.1358(3) 0.0957 Uani
N2KA N 0.3992(2) -0.1358(3) 0.1906(3) 0.0957 Uani
N3UA N 0.2975(2) 0.1312(3) 0.3529(3) 0.0950 Uani
N3KA N 0.3529(3) -0.1312(3) 0.2975(2) 0.0950 Uani
N4LA N 0.5393(2) 0.1022(3) 0.2768(3) 0.0987 Uani
N4KA N 0.4607(2) -0.1022(3) 0.2768(3) 0.0987 Uani
O1 O 0.432(4) 0.432(4) 0.432(4) 0.2200 Uiso
O2 O 0.5000 0.2329(14) 0.2329(14) 0.1740 Uiso
O3 O 0.5000 0.263(3) 0.396(3) 0.2000 Uiso
O4 O 0.209(3) 0.0535(19) 0.0535(19) 0.2000 Uiso
O5 O 0.2351(18) 0.2351(18) 0.2351(18) 0.1100 Uiso
O6 O 0.155(4) 0.155(4) 0.155(4) 0.1400 Uiso
O7 O 0.5000 0.2592(7) 0.3028(8) 0.3090 Uiso
C17? C 0.4230(8) 0.1201(7) 0.1563(8) 0.0730 Uiso
C18? C 0.4423(7) 0.0744(6) 0.1466(6) 0.0650 Uiso
H12? H 0.4418 0.0502 0.1680 0.1440 Uiso
C19? C 0.4611(6) 0.0703(6) 0.1038(6) 0.0910 Uiso
H13? H 0.4752 0.0422 0.0966 0.2000 Uiso
H14? H 0.3025 0.0835 0.3184 0.1060 Uiso
C20? C 0.3877(15) 0.2389(18) 0.3503(16) 0.1220 Uiso
H15? H 0.4142 0.2570 0.3539 0.3900 Uiso
C21? C 0.4747(8) 0.1015(10) 0.3231(4) 0.0640 Uiso
C22? C 0.4499(7) 0.0957(8) 0.3647(7) 0.0590 Uiso
H16? H 0.4176 0.0949 0.3652 0.2480 Uiso
C23? C 0.4762(8) 0.0913(9) 0.4054(9) 0.0960 Uiso
H17? H 0.4607 0.0882 0.4336 0.4050 Uiso
O8? O 0.5000 0.2563(19) 0.2563(19) 0.2100 Uiso
loop_
_atom_site_aniso_label
_atom_site_aniso_U_11
_atom_site_aniso_U_22
_atom_site_aniso_U_33
_atom_site_aniso_U_23
_atom_site_aniso_U_13
_atom_site_aniso_U_12
Zn1 0.0760(9) 0.1158(10) 0.0933(10) 0.0165(6) 0.0136(6) 0.0080(6)
C1 0.052(8) 0.166(15) 0.063(8) 0.000 -0.005(6) 0.000
C2 0.083(6) 0.134(8) 0.072(6) 0.011(5) 0.015(5) 0.010(6)
C3 0.093(8) 0.165(11) 0.175(12) 0.021(9) -0.032(8) 0.018(8)
C4 0.194(13) 0.210(19) 0.301(19) -0.023(11) -0.155(14) 0.047(11)
C5 0.115(11) 0.089(6) 0.089(6) 0.008(9) 0.024(6) 0.024(6)
C9 0.074(5) 0.118(11) 0.074(5) 0.004(5) -0.004(8) 0.004(5)
C10 0.106(8) 0.152(10) 0.088(7) -0.001(7) 0.011(6) -0.003(7)
C11 0.152(11) 0.165(13) 0.165(13) -0.020(10) 0.058(9) -0.060(10)
C16 0.088(10) 0.131(12) 0.088(10) 0.004(8) 0.000 0.000
N1 0.063(5) 0.116(7) 0.098(6) 0.016(5) -0.010(4) 0.007(5)
N2 0.087(5) 0.113(6) 0.087(5) 0.016(5) 0.017(4) 0.019(5)
N3 0.078(5) 0.126(7) 0.081(6) 0.007(5) 0.010(4) 0.003(5)
N4 0.078(5) 0.132(7) 0.086(5) 0.014(4) 0.010(4) -0.012(5)
Zn1KA 0.076 0.1158 0.0933 -0.0165 0.0136 -0.008
Zn1TA 0.076 0.0933 0.1158 0.0165 0.008 0.0136
Zn1UA 0.0933 0.1158 0.076 0.008 0.0136 0.0165
Zn1LA 0.076 0.1158 0.0933 0.0165 -0.0136 -0.008
C2KA 0.083 0.134 0.072 -0.011 0.015 -0.01
C3KA 0.093 0.165 0.175 -0.021 -0.032 -0.018
C4KA 0.194 0.21 0.301 0.023 -0.155 -0.047
C10UA 0.088 0.152 0.106 -0.003 0.011 -0.001
C11UA 0.165 0.165 0.152 -0.06 0.058 -0.02
N1KA 0.063 0.116 0.098 -0.016 -0.01 -0.007
N2TA 0.087 0.087 0.113 0.016 0.019 0.017
N2KA 0.087 0.113 0.087 -0.016 0.017 -0.019
N3UA 0.081 0.126 0.078 0.003 0.01 0.007
N3KA 0.078 0.126 0.081 -0.007 0.01 -0.003
N4LA 0.078 0.132 0.086 0.014 -0.01 0.012
N4KA 0.078 0.132 0.086 -0.014 0.01 0.012
loop_
_geom_bond_atom_site_label_1
_geom_bond_atom_site_label_2
_geom_bond_site_symmetry_1
_geom_bond_site_symmetry_2
Zn1 N1 1_555 1_555
C1 H1 1_555 1_555
C2 C3 1_555 1_555
C3 H2 1_555 1_555
C4 C3 1_555 1_555
H3 C4 1_555 1_555
C5 H4 1_555 1_555
C6 C7 1_555 1_555
C7 H5 1_555 1_555
C8 C7 1_555 1_555
H6 C8 1_555 1_555
C9 N3 1_555 1_555
C10 C11 1_555 1_555
C11 H7 1_555 1_555
C12 C11 1_555 1_555
H8 C12 1_555 1_555
C13 C14 1_555 1_555
C14 H9 1_555 1_555
C15 C14 1_555 1_555
H10 C15 1_555 1_555
C16 H11 1_555 1_555
N1 C1 1_555 1_555
N2 Zn1 1_555 1_555
N3 Zn1 1_555 1_555
N4 Zn1 1_555 1_555
Zn1KA N1KA 1_555 1_555
Zn1TA N2TA 1_555 1_555
Zn1UA N3UA 1_555 1_555
Zn1LA N4LA 1_555 1_555
C2KA C2 1_555 1_555
C3KA C2KA 1_555 1_555
H2KA C3KA 1_555 1_555
C4KA C4 1_555 1_555
H3KA C4KA 1_555 1_555
C6TA C6 1_555 1_555
C7TA C6TA 1_555 1_555
H5TA C7TA 1_555 1_555
C8TA C8 1_555 1_555
H6TA C8TA 1_555 1_555
C10UA C10 1_555 1_555
C11UA C10UA 1_555 1_555
H7UA C11UA 1_555 1_555
C12UA C12 1_555 1_555
H8UA C12UA 1_555 1_555
C13LA C13 1_555 1_555
C14LA C13LA 1_555 1_555
H9LA C14LA 1_555 1_555
C15LA C15 1_555 1_555
H10LA C15LA 1_555 1_555
N1KA C1 1_555 1_555
N2TA C5 1_555 1_555
N2KA Zn1KA 1_555 1_555
N3UA C9 1_555 1_555
N3KA Zn1KA 1_555 1_555
N4LA C16 1_555 1_555
N4KA Zn1KA 1_555 1_555
C2 N1 1_555 1_555
C5 N2 1_555 1_555
C6 N2 1_555 1_555
C10 N3 1_555 1_555
C13 N4 1_555 1_555
C16 N4 1_555 1_555
C2KA N1KA 1_555 1_555
C3KA C4KA 1_555 1_555
C6TA N2TA 1_555 1_555
C7TA C8TA 1_555 1_555
C10UA N3UA 1_555 1_555
C11UA C12UA 1_555 1_555
C13LA N4LA 1_555 1_555
C14LA C15LA 1_555 1_555

#END
