
#######################################################################
#
#                 Cambridge Crystallographic Data Centre
#                                CCDC 
#
#######################################################################
#
# If this CIF has been generated from an entry in the Cambridge 
# Structural Database, then it will include bibliographic, chemical, 
# crystal, experimental, refinement or atomic coordinate data resulting 
# from the CCDC's data processing and validation procedures.
#
#######################################################################

data_JEYTEP
_chemical_name_common            JLU-MONT1
_chemical_formula_moiety         
'(C23 H17 N2 O7 Zn1 1-)n,C1 H6 N1 1+,4.5(C2 H5 N1 O1)'
_chemical_name_systematic        
"catena-[methylammonium (\m-4,4',4''-nitrilotribenzoato)-(N-methylformamide)-zinc N-methylformamide solvate]"
_symmetry_cell_setting           rhombohedral
_symmetry_space_group_name_H-M   'R -3'
_symmetry_Int_Tables_number      148
_space_group_name_Hall           '-R 3'
loop_
_symmetry_equiv_pos_site_id
_symmetry_equiv_pos_as_xyz
1 x,y,z
2 -y,x-y,z
3 -x+y,-x,z
4 2/3+x,1/3+y,1/3+z
5 2/3-y,1/3+x-y,1/3+z
6 2/3-x+y,1/3-x,1/3+z
7 1/3+x,2/3+y,2/3+z
8 1/3-y,2/3+x-y,2/3+z
9 1/3-x+y,2/3-x,2/3+z
10 -x,-y,-z
11 y,-x+y,-z
12 x-y,x,-z
13 1/3-x,2/3-y,2/3-z
14 1/3+y,2/3-x+y,2/3-z
15 1/3+x-y,2/3+x,2/3-z
16 2/3-x,1/3-y,1/3-z
17 2/3+y,1/3-x+y,1/3-z
18 2/3+x-y,1/3+x,1/3-z
_cell_length_a                   47.432(7)
_cell_length_b                   47.432(7)
_cell_length_c                   13.658(3)
_cell_angle_alpha                90
_cell_angle_beta                 90
_cell_angle_gamma                120
_cell_volume                     26611
_exptl_crystal_colour            colorless
_exptl_crystal_description       block
_cell_formula_units_Z            18
loop_
_atom_site_label
_atom_site_type_symbol
_atom_site_fract_x
_atom_site_fract_y
_atom_site_fract_z
Zn1 Zn 0.056125(11) 0.399954(11) 0.44356(3)
O1 O 0.09366(7) 0.39386(7) 0.4479(2)
O2 O 0.08533(9) 0.37361(9) 0.3000(3)
O3 O 0.29965(7) 0.37617(8) 0.01646(19)
O4 O 0.29952(9) 0.42096(9) -0.0233(3)
O5 O 0.30841(8) 0.39513(8) 0.7604(2)
O6 O 0.25990(9) 0.35569(9) 0.8067(3)
O7 O 0.01629(7) 0.35596(7) 0.4595(2)
N1 N 0.22446(8) 0.38880(10) 0.3870(2)
N2 N -0.01455(11) 0.30811(11) 0.5342(3)
H1 H -0.0135 0.2921 0.5600
C1 C 0.19393(10) 0.38688(12) 0.3836(3)
C2 C 0.18389(11) 0.39892(13) 0.4605(3)
H2 H 0.1973 0.4079 0.5148
C3 C 0.15400(11) 0.39766(12) 0.4571(3)
H3 H 0.1476 0.4056 0.5097
C4 C 0.13389(9) 0.38498(10) 0.3780(3)
C5 C 0.14443(10) 0.37351(11) 0.3006(3)
H4 H 0.1313 0.3651 0.2455
C6 C 0.17384(11) 0.37422(12) 0.3033(3)
H5 H 0.1801 0.3661 0.2508
C7 C 0.10212(11) 0.38406(11) 0.3749(3)
C8 C 0.24172(10) 0.39144(12) 0.2994(3)
C9 C 0.25407(11) 0.37079(12) 0.2831(3)
H6 H 0.2516 0.3556 0.3304
C10 C 0.26993(11) 0.37273(12) 0.1967(3)
H7 H 0.2773 0.3582 0.1849
C11 C 0.27499(10) 0.39594(12) 0.1277(3)
C12 C 0.26329(12) 0.41675(13) 0.1452(3)
H8 H 0.2670 0.4328 0.0995
C13 C 0.24602(12) 0.41424(13) 0.2295(3)
H9 H 0.2374 0.4278 0.2390
C14 C 0.29291(11) 0.39824(13) 0.0343(3)
C15 C 0.23725(10) 0.38514(12) 0.4775(3)
C16 C 0.27028(11) 0.40522(12) 0.4963(3)
H10 H 0.2835 0.4208 0.4507
C17 C 0.28342(11) 0.40186(12) 0.5837(3)
H11 H 0.3056 0.4147 0.5953
C18 C 0.26375(11) 0.37962(11) 0.6529(3)
C19 C 0.23114(11) 0.36022(12) 0.6337(3)
H12 H 0.2177 0.3451 0.6802
C20 C 0.21806(10) 0.36280(12) 0.5469(3)
H13 H 0.1960 0.3493 0.5349
C21 C 0.27928(13) 0.37732(12) 0.7469(3)
C22 C 0.01204(11) 0.33619(12) 0.5215(3)
H14 H 0.0292 0.3413 0.5643
C23 C -0.0460(3) 0.3039(3) 0.5045(10)
H15 H -0.0629 0.2820 0.5184
H16 H -0.0457 0.3080 0.4356
H17 H -0.0502 0.3189 0.5400
Zn1Q Zn 0.322838(16) 0.389458(11) -0.11023(3)
Zn1Q_2 Zn 0.322838(16) 0.389458(11) 0.88977(3)
O3P O 0.04284(8) 0.40985(11) 0.31687(19)
O4P O 0.08763(9) 0.45477(13) 0.3566(3)
O5P O 0.06180(8) 0.42005(11) 0.5729(2)
C24? C -0.0395(3) 0.2925(3) 0.4481(10)
H18? H -0.0574 0.2720 0.4687
H19? H -0.0289 0.2893 0.3929
H20? H -0.0475 0.3068 0.4299
loop_
_geom_bond_atom_site_label_1
_geom_bond_atom_site_label_2
_geom_bond_site_symmetry_1
_geom_bond_site_symmetry_2
Zn1 O1 1_555 1_555
O1 C7 1_555 1_555
O2 C7 1_555 1_555
O3 C14 1_555 1_555
O4 C14 1_555 1_555
O5 C21 1_555 1_555
O6 C21 1_555 1_555
O7 Zn1 1_555 1_555
N1 C1 1_555 1_555
N2 H1 1_555 1_555
C1 C2 1_555 1_555
C2 H2 1_555 1_555
C3 C2 1_555 1_555
H3 C3 1_555 1_555
C4 C3 1_555 1_555
C5 C4 1_555 1_555
H4 C5 1_555 1_555
C6 C1 1_555 1_555
H5 C6 1_555 1_555
C7 C4 1_555 1_555
C8 N1 1_555 1_555
C9 C8 1_555 1_555
H6 C9 1_555 1_555
C10 C9 1_555 1_555
H7 C10 1_555 1_555
C11 C10 1_555 1_555
C12 C11 1_555 1_555
H8 C12 1_555 1_555
C13 C8 1_555 1_555
H9 C13 1_555 1_555
C14 C11 1_555 1_555
C15 N1 1_555 1_555
C16 C15 1_555 1_555
H10 C16 1_555 1_555
C17 C16 1_555 1_555
H11 C17 1_555 1_555
C18 C17 1_555 1_555
C19 C18 1_555 1_555
H12 C19 1_555 1_555
C20 C15 1_555 1_555
H13 C20 1_555 1_555
C21 C18 1_555 1_555
C22 O7 1_555 1_555
H14 C22 1_555 1_555
C23 N2 1_555 1_555
H15 C23 1_555 1_555
H16 C23 1_555 1_555
H17 C23 1_555 1_555
Zn1Q O3 1_555 1_555
Zn1Q_2 O5 1_555 1_555
O3P Zn1 1_555 1_555
O4P Zn1 1_555 1_555
O5P Zn1 1_555 1_555
O4 Zn1Q 1_555 1_555
N2 C22 1_555 1_555
C5 C6 1_555 1_555
C12 C13 1_555 1_555
C19 C20 1_555 1_555

#END
