
#######################################################################
#
#                 Cambridge Crystallographic Data Centre
#                                CCDC 
#
#######################################################################
#
# If this CIF has been generated from an entry in the Cambridge 
# Structural Database, then it will include bibliographic, chemical, 
# crystal, experimental, refinement or atomic coordinate data resulting 
# from the CCDC's data processing and validation procedures.
#
#######################################################################

data_IFUCAQ
_chemical_name_common            DUT-67(Zr)_HCl
_chemical_formula_moiety         
'(C12 H14 O16 S2 Zr3 2+)n,2(Cl1 1-),C2 H6 O1,0.5(C3 H7 N1 O1)'
_chemical_name_systematic        
'catena-[bis(\m-hydroxo)-bis(\m-oxo)-bis(\m-thiophene-2,5-dicarboxylato)-tetra-aqua-tri-zirconium(iv) dichloride ethanol N,N-dimethylformamide solvate]'
_symmetry_cell_setting           cubic
_symmetry_space_group_name_H-M   'F m -3 m'
_symmetry_Int_Tables_number      225
_space_group_name_Hall           '-F 4 2 3'
loop_
_symmetry_equiv_pos_site_id
_symmetry_equiv_pos_as_xyz
1 x,y,z
2 -x,-y,z
3 -x,y,-z
4 x,-y,-z
5 z,x,y
6 z,-x,-y
7 -z,-x,y
8 -z,x,-y
9 y,z,x
10 -y,z,-x
11 y,-z,-x
12 -y,-z,x
13 y,x,-z
14 -y,-x,-z
15 y,-x,z
16 -y,x,z
17 x,z,-y
18 -x,z,y
19 -x,-z,-y
20 x,-z,y
21 z,y,-x
22 z,-y,x
23 -z,y,x
24 -z,-y,-x
25 x,1/2+y,1/2+z
26 -x,1/2-y,1/2+z
27 -x,1/2+y,1/2-z
28 x,1/2-y,1/2-z
29 z,1/2+x,1/2+y
30 z,1/2-x,1/2-y
31 -z,1/2-x,1/2+y
32 -z,1/2+x,1/2-y
33 y,1/2+z,1/2+x
34 -y,1/2+z,1/2-x
35 y,1/2-z,1/2-x
36 -y,1/2-z,1/2+x
37 y,1/2+x,1/2-z
38 -y,1/2-x,1/2-z
39 y,1/2-x,1/2+z
40 -y,1/2+x,1/2+z
41 x,1/2+z,1/2-y
42 -x,1/2+z,1/2+y
43 -x,1/2-z,1/2-y
44 x,1/2-z,1/2+y
45 z,1/2+y,1/2-x
46 z,1/2-y,1/2+x
47 -z,1/2+y,1/2+x
48 -z,1/2-y,1/2-x
49 1/2+x,y,1/2+z
50 1/2-x,-y,1/2+z
51 1/2-x,y,1/2-z
52 1/2+x,-y,1/2-z
53 1/2+z,x,1/2+y
54 1/2+z,-x,1/2-y
55 1/2-z,-x,1/2+y
56 1/2-z,x,1/2-y
57 1/2+y,z,1/2+x
58 1/2-y,z,1/2-x
59 1/2+y,-z,1/2-x
60 1/2-y,-z,1/2+x
61 1/2+y,x,1/2-z
62 1/2-y,-x,1/2-z
63 1/2+y,-x,1/2+z
64 1/2-y,x,1/2+z
65 1/2+x,z,1/2-y
66 1/2-x,z,1/2+y
67 1/2-x,-z,1/2-y
68 1/2+x,-z,1/2+y
69 1/2+z,y,1/2-x
70 1/2+z,-y,1/2+x
71 1/2-z,y,1/2+x
72 1/2-z,-y,1/2-x
73 1/2+x,1/2+y,z
74 1/2-x,1/2-y,z
75 1/2-x,1/2+y,-z
76 1/2+x,1/2-y,-z
77 1/2+z,1/2+x,y
78 1/2+z,1/2-x,-y
79 1/2-z,1/2-x,y
80 1/2-z,1/2+x,-y
81 1/2+y,1/2+z,x
82 1/2-y,1/2+z,-x
83 1/2+y,1/2-z,-x
84 1/2-y,1/2-z,x
85 1/2+y,1/2+x,-z
86 1/2-y,1/2-x,-z
87 1/2+y,1/2-x,z
88 1/2-y,1/2+x,z
89 1/2+x,1/2+z,-y
90 1/2-x,1/2+z,y
91 1/2-x,1/2-z,-y
92 1/2+x,1/2-z,y
93 1/2+z,1/2+y,-x
94 1/2+z,1/2-y,x
95 1/2-z,1/2+y,x
96 1/2-z,1/2-y,-x
97 -x,-y,-z
98 x,y,-z
99 x,-y,z
100 -x,y,z
101 -z,-x,-y
102 -z,x,y
103 z,x,-y
104 z,-x,y
105 -y,-z,-x
106 y,-z,x
107 -y,z,x
108 y,z,-x
109 -y,-x,z
110 y,x,z
111 -y,x,-z
112 y,-x,-z
113 -x,-z,y
114 x,-z,-y
115 x,z,y
116 -x,z,-y
117 -z,-y,x
118 -z,y,-x
119 z,-y,-x
120 z,y,x
121 -x,1/2-y,1/2-z
122 x,1/2+y,1/2-z
123 x,1/2-y,1/2+z
124 -x,1/2+y,1/2+z
125 -z,1/2-x,1/2-y
126 -z,1/2+x,1/2+y
127 z,1/2+x,1/2-y
128 z,1/2-x,1/2+y
129 -y,1/2-z,1/2-x
130 y,1/2-z,1/2+x
131 -y,1/2+z,1/2+x
132 y,1/2+z,1/2-x
133 -y,1/2-x,1/2+z
134 y,1/2+x,1/2+z
135 -y,1/2+x,1/2-z
136 y,1/2-x,1/2-z
137 -x,1/2-z,1/2+y
138 x,1/2-z,1/2-y
139 x,1/2+z,1/2+y
140 -x,1/2+z,1/2-y
141 -z,1/2-y,1/2+x
142 -z,1/2+y,1/2-x
143 z,1/2-y,1/2-x
144 z,1/2+y,1/2+x
145 1/2-x,-y,1/2-z
146 1/2+x,y,1/2-z
147 1/2+x,-y,1/2+z
148 1/2-x,y,1/2+z
149 1/2-z,-x,1/2-y
150 1/2-z,x,1/2+y
151 1/2+z,x,1/2-y
152 1/2+z,-x,1/2+y
153 1/2-y,-z,1/2-x
154 1/2+y,-z,1/2+x
155 1/2-y,z,1/2+x
156 1/2+y,z,1/2-x
157 1/2-y,-x,1/2+z
158 1/2+y,x,1/2+z
159 1/2-y,x,1/2-z
160 1/2+y,-x,1/2-z
161 1/2-x,-z,1/2+y
162 1/2+x,-z,1/2-y
163 1/2+x,z,1/2+y
164 1/2-x,z,1/2-y
165 1/2-z,-y,1/2+x
166 1/2-z,y,1/2-x
167 1/2+z,-y,1/2-x
168 1/2+z,y,1/2+x
169 1/2-x,1/2-y,-z
170 1/2+x,1/2+y,-z
171 1/2+x,1/2-y,z
172 1/2-x,1/2+y,z
173 1/2-z,1/2-x,-y
174 1/2-z,1/2+x,y
175 1/2+z,1/2+x,-y
176 1/2+z,1/2-x,y
177 1/2-y,1/2-z,-x
178 1/2+y,1/2-z,x
179 1/2-y,1/2+z,x
180 1/2+y,1/2+z,-x
181 1/2-y,1/2-x,z
182 1/2+y,1/2+x,z
183 1/2-y,1/2+x,-z
184 1/2+y,1/2-x,-z
185 1/2-x,1/2-z,y
186 1/2+x,1/2-z,-y
187 1/2+x,1/2+z,y
188 1/2-x,1/2+z,-y
189 1/2-z,1/2-y,x
190 1/2-z,1/2+y,-x
191 1/2+z,1/2-y,-x
192 1/2+z,1/2+y,x
_cell_length_a                   38.650(4)
_cell_length_b                   38.650(4)
_cell_length_c                   38.650(4)
_cell_angle_alpha                90
_cell_angle_beta                 90
_cell_angle_gamma                90
_cell_volume                     57736.2
_exptl_crystal_colour            colorless
_exptl_crystal_description       octahedron
_cell_formula_units_Z            48
loop_
_atom_site_label
_atom_site_type_symbol
_atom_site_fract_x
_atom_site_fract_y
_atom_site_fract_z
_atom_site_U_iso_or_equiv
_atom_site_thermal_displace_type
Cl1 Cl 0.2959(3) 0.1281(5) 0.2041(3) 0.0950 Uani
Zr1 Zr 0.29458(2) 0.000000 0.20542(2) 0.0102 Uani
Zr2 Zr 0.28224(2) 0.04550(2) 0.28224(2) 0.0185 Uani
O1 O 0.2618(5) 0.000000 0.3064(6) 0.1453 Uani
O2 O 0.3387(2) 0.03366(19) 0.20848(19) 0.0690 Uani
O3 O 0.3314(2) 0.0631(2) 0.2582(2) 0.1057 Uani
O4 O 0.3215(2) 0.0468(4) 0.3215(2) 0.1063 Uani
O5 O 0.2797(3) 0.1021(4) 0.2797(3) 0.1077 Uani
O6 O 0.2720(3) 0.0482(5) 0.2280(3) 0.1247 Uani
S1 S 0.38958(10) 0.11042(10) 0.25014(13) 0.0887 Uani
C1 C 0.3476(3) 0.0580(4) 0.2314(3) 0.0837 Uani
C2 C 0.3746(7) 0.0792(6) 0.2203(9) 0.2493 Uani
C3 C 0.3979(5) 0.0764(5) 0.1951(6) 0.1643 Uani
H1 H 0.397194 0.058734 0.178746 0.1970 Uiso
O2XF O 0.46634(19) 0.1613(2) 0.20848(19) 0.0690 Uani
O3XF O 0.4369(2) 0.1686(2) 0.2582(2) 0.1057 Uani
C1XF C 0.4420(4) 0.1524(3) 0.2314(3) 0.0837 Uani
C2XF C 0.4208(6) 0.1254(7) 0.2203(9) 0.2493 Uani
C3XF C 0.4236(5) 0.1021(5) 0.1951(6) 0.1643 Uani
H1XF H 0.441266 0.102806 0.178746 0.1970 Uiso
Zr2U Zr 0.28224(2) -0.04550(2) 0.28224(2) 0.0185 Uani
O1U O 0.3064(6) 0.000000 0.2618(5) 0.1453 Uani
O2U O 0.20848(19) -0.03366(19) 0.3387(2) 0.0690 Uani
O3U O 0.2582(2) -0.0631(2) 0.3314(2) 0.1057 Uani
O4U O 0.3215(2) -0.0468(4) 0.3215(2) 0.1063 Uani
O5U O 0.2797(3) -0.1021(4) 0.2797(3) 0.1077 Uani
O6U O 0.2280(3) -0.0482(5) 0.2720(3) 0.1247 Uani
S1U S 0.25014(13) -0.11042(10) 0.38958(10) 0.0887 Uani
C1U C 0.2314(3) -0.0580(4) 0.3476(3) 0.0837 Uani
C2U C 0.2203(9) -0.0792(6) 0.3746(7) 0.2493 Uani
C3U C 0.1951(6) -0.0764(5) 0.3979(5) 0.1643 Uani
H1U H 0.178746 -0.058734 0.397194 0.1970 Uiso
O2VD O 0.20848(19) -0.1613(2) 0.46634(19) 0.0690 Uani
O3VD O 0.2582(2) -0.1686(2) 0.4369(2) 0.1057 Uani
C1VD C 0.2314(3) -0.1524(3) 0.4420(4) 0.0837 Uani
C2VD C 0.2203(9) -0.1254(7) 0.4208(6) 0.2493 Uani
C3VD C 0.1951(6) -0.1021(5) 0.4236(5) 0.1643 Uani
H1VD H 0.178746 -0.102806 0.441266 0.1970 Uiso
Zr1U Zr 0.20542(2) 0.000000 0.29458(2) 0.0102 Uani
Zr1BA Zr 0.20542(2) -0.20542(2) 0.500000 0.0102 Uani
Zr1EB Zr 0.500000 0.20542(2) 0.20542(2) 0.0102 Uani
Zr2NA Zr 0.28224(2) -0.21776(2) 0.45450(2) 0.0185 Uani
Zr2XA Zr 0.21776(2) 0.04550(2) 0.21776(2) 0.0185 Uani
Zr2SB Zr 0.21776(2) -0.04550(2) 0.21776(2) 0.0185 Uani
Zr2EC Zr 0.45450(2) 0.21776(2) 0.28224(2) 0.0185 Uani
O1XA O 0.2382(5) 0.000000 0.1936(6) 0.1453 Uani
O2SB O 0.29152(19) -0.03366(19) 0.1613(2) 0.0690 Uani
O2TC O 0.3387(2) -0.03366(19) 0.20848(19) 0.0690 Uani
O2IF O 0.29152(19) 0.03366(19) 0.1613(2) 0.0690 Uani
O3TC O 0.3314(2) -0.0631(2) 0.2582(2) 0.1057 Uani
O3OD O 0.2582(2) 0.0631(2) 0.3314(2) 0.1057 Uani
O6XA O 0.2280(3) 0.0482(5) 0.2720(3) 0.1247 Uani
O6SB O 0.2720(3) -0.0482(5) 0.2280(3) 0.1247 Uani
loop_
_atom_site_aniso_label
_atom_site_aniso_U_11
_atom_site_aniso_U_22
_atom_site_aniso_U_33
_atom_site_aniso_U_23
_atom_site_aniso_U_13
_atom_site_aniso_U_12
Cl1 0.113 0.059(10) 0.113 0.015(5) 0.065(8) -0.015(5)
Zr1 0.0132(5) 0.0043(5) 0.0132(5) 0.000 0.0024(2) 0.000
Zr2 0.0201 0.0154 0.0201 -0.00898 0.0065 -0.00898
O1 0.164 0.069 0.203 0 0.123 0
O2 0.073(5) 0.058(4) 0.076(4) -0.010(3) 0.017(3) -0.012(3)
O3 0.105(7) 0.112(7) 0.100(7) -0.050(5) 0.042(5) -0.055(5)
O4 0.067 0.185 0.067 -0.029 0 -0.029
O5 0.121 0.081 0.121 -0.007 0.016 -0.007
O6 0.09 0.194 0.09 -0.057 0.003 0.057
S1 0.0886(19) 0.0886(19) 0.089(3) -0.0314(19) 0.0314(19) -0.037(2)
C1 0.083(8) 0.112(9) 0.056(6) -0.013(6) 0.014(5) -0.029(7)
C2 0.24(3) 0.148(18) 0.36(4) -0.15(2) 0.22(3) -0.135(19)
C3 0.144(15) 0.149(16) 0.20(2) -0.078(15) 0.116(16) -0.068(14)
O2XF 0.058 0.073 0.076 -0.017 0.01 -0.012
O3XF 0.112 0.105 0.1 -0.042 0.05 -0.055
C1XF 0.112 0.083 0.056 -0.014 0.013 -0.029
C2XF 0.148 0.24 0.36 -0.22 0.15 -0.135
C3XF 0.149 0.144 0.2 -0.116 0.078 -0.068
Zr2U 0.0201 0.0154 0.0201 0.00898 0.0065 0.00898
O1U 0.203 0.069 0.164 0 0.123 0
O2U 0.076 0.058 0.073 0.012 0.017 0.01
O3U 0.1 0.112 0.105 0.055 0.042 0.05
O4U 0.067 0.185 0.067 0.029 0 0.029
O5U 0.121 0.081 0.121 0.007 0.016 0.007
O6U 0.09 0.194 0.09 -0.057 0.003 0.057
S1U 0.089 0.0886 0.0886 0.037 0.0314 0.0314
C1U 0.056 0.112 0.083 0.029 0.014 0.013
C2U 0.36 0.148 0.24 0.135 0.22 0.15
C3U 0.2 0.149 0.144 0.068 0.116 0.078
O2VD 0.076 0.073 0.058 0.012 0.01 0.017
O3VD 0.1 0.105 0.112 0.055 0.05 0.042
C1VD 0.056 0.083 0.112 0.029 0.013 0.014
C2VD 0.36 0.24 0.148 0.135 0.15 0.22
C3VD 0.2 0.144 0.149 0.068 0.078 0.116
Zr1U 0.0132 0.0043 0.0132 0 0.0024 0
Zr1BA 0.0132 0.0132 0.0043 0 0 0.0024
Zr1EB 0.0043 0.0132 0.0132 -0.0024 0 0
Zr2NA 0.0201 0.0201 0.0154 0.00898 0.00898 0.0065
Zr2XA 0.0201 0.0154 0.0201 0.00898 0.0065 0.00898
Zr2SB 0.0201 0.0154 0.0201 -0.00898 0.0065 -0.00898
Zr2EC 0.0154 0.0201 0.0201 -0.0065 0.00898 -0.00898
O1XA 0.164 0.069 0.203 0 0.123 0
O2SB 0.076 0.058 0.073 -0.012 0.017 -0.01
O2TC 0.073 0.058 0.076 0.01 0.017 0.012
O2IF 0.076 0.058 0.073 0.012 0.017 0.01
O3TC 0.105 0.112 0.1 0.05 0.042 0.055
O3OD 0.1 0.112 0.105 -0.055 0.042 -0.05
O6XA 0.09 0.194 0.09 0.057 0.003 -0.057
O6SB 0.09 0.194 0.09 0.057 0.003 -0.057
loop_
_geom_bond_atom_site_label_1
_geom_bond_atom_site_label_2
_geom_bond_site_symmetry_1
_geom_bond_site_symmetry_2
Zr1 O2 1_555 1_555
Zr2 O1 1_555 1_555
O1 Zr2U 1_555 1_555
O2 C1 1_555 1_555
O3 Zr2 1_555 1_555
O4 Zr2 1_555 1_555
O5 Zr2 1_555 1_555
O6 Zr1 1_555 1_555
S1 C2 1_555 1_555
C1 O3 1_555 1_555
C2 C1 1_555 1_555
C3 C2 1_555 1_555
H1 C3 1_555 1_555
O2XF C1XF 1_555 1_555
O3XF C1XF 1_555 1_555
C1XF C2XF 1_555 1_555
C2XF S1 1_555 1_555
C3XF C3 1_555 1_555
H1XF C3XF 1_555 1_555
Zr2U O1U 1_555 1_555
O1U Zr1 1_555 1_555
O2U C1U 1_555 1_555
O3U Zr2U 1_555 1_555
O4U Zr2U 1_555 1_555
O5U Zr2U 1_555 1_555
O6U Zr2U 1_555 1_555
S1U C2U 1_555 1_555
C1U O3U 1_555 1_555
C2U C1U 1_555 1_555
C3U C2U 1_555 1_555
H1U C3U 1_555 1_555
O2VD C1VD 1_555 1_555
O3VD C1VD 1_555 1_555
C1VD C2VD 1_555 1_555
C2VD S1U 1_555 1_555
C3VD C3U 1_555 1_555
H1VD C3VD 1_555 1_555
Zr1U O1 1_555 1_555
Zr1BA O2VD 1_555 1_555
Zr1EB O2XF 1_555 1_555
Zr2NA O3VD 1_555 1_555
Zr2XA O6 1_555 1_555
Zr2SB O6U 1_555 1_555
Zr2EC O3XF 1_555 1_555
O1XA Zr1 1_555 1_555
O2SB Zr1 1_555 1_555
O2TC Zr1 1_555 1_555
O2IF Zr1 1_555 1_555
O3TC Zr2U 1_555 1_555
O3OD Zr2 1_555 1_555
O6XA Zr2 1_555 1_555
O6SB Zr1 1_555 1_555
Zr2 O6 1_555 1_555
Zr2 O1U 1_555 1_555
C2XF C3XF 1_555 1_555
Zr2U O6SB 1_555 1_555
O2U Zr1U 1_555 1_555
O6U Zr1U 1_555 1_555
C2VD C3VD 1_555 1_555
Zr1U O6XA 1_555 1_555
Zr2XA O1XA 1_555 1_555
Zr2XA O6XA 1_555 1_555
Zr2SB O1XA 1_555 1_555
Zr2SB O6SB 1_555 1_555

#END
