
#######################################################################
#
#                 Cambridge Crystallographic Data Centre
#                                CCDC 
#
#######################################################################
#
# If this CIF has been generated from an entry in the Cambridge 
# Structural Database, then it will include bibliographic, chemical, 
# crystal, experimental, refinement or atomic coordinate data resulting 
# from the CCDC's data processing and validation procedures.
#
#######################################################################

data_WEVYEE
_chemical_name_common            MIL-96(Al)-HR
_chemical_formula_moiety         '(C54 H44 Al12 O58)n,15.5(H2 O1)'
_chemical_name_systematic        
'catena-[hexakis(\m-benzene-1,3,5-tricarboxylato)-dodecakis(\m-hydroxo)-(\m-oxo)-pentaaqua-tetrakis(hydroxy)-dodeca-aluminium hydrate]'
_symmetry_cell_setting           hexagonal
_symmetry_space_group_name_H-M   'P 63/m m c'
_symmetry_Int_Tables_number      194
_space_group_name_Hall           '-P 6c 2c'
loop_
_symmetry_equiv_pos_site_id
_symmetry_equiv_pos_as_xyz
1 x,y,z
2 -y,x-y,z
3 -x+y,-x,z
4 -x,-y,1/2+z
5 y,-x+y,1/2+z
6 x-y,x,1/2+z
7 y,x,-z
8 x-y,-y,-z
9 -x,-x+y,-z
10 -y,-x,1/2-z
11 -x+y,y,1/2-z
12 x,x-y,1/2-z
13 -x,-y,-z
14 y,-x+y,-z
15 x-y,x,-z
16 x,y,1/2-z
17 -y,x-y,1/2-z
18 -x+y,-x,1/2-z
19 -y,-x,z
20 -x+y,y,z
21 x,x-y,z
22 y,x,1/2+z
23 x-y,-y,1/2+z
24 -x,-x+y,1/2+z
_cell_length_a                   14.290(2)
_cell_length_b                   14.290(2)
_cell_length_c                   31.300(6)
_cell_angle_alpha                90
_cell_angle_beta                 90
_cell_angle_gamma                120
_cell_volume                     5535.28
_exptl_crystal_colour            white
_exptl_crystal_description       needle
_cell_formula_units_Z            2
loop_
_atom_site_label
_atom_site_type_symbol
_atom_site_fract_x
_atom_site_fract_y
_atom_site_fract_z
Al1 Al 0.92604(10) 1.07396(10) 0.7500
Al2 Al 0.5000 1.0000 0.5000
Al3 Al 0.41534(7) 0.83068(15) 0.41659(5)
O1 O 0.82863(18) 0.99283(18) 0.70681(8)
O2 O 1.0000 1.0000 0.7500
O3 O 0.62232(18) 1.05854(18) 0.59420(8)
O4 O 0.5689(2) 0.95117(19) 0.53712(9)
O5 O 0.8471(2) 1.1529(2) 0.7500
O6 O 0.43274(15) 0.8655(3) 0.47476(10)
O7 O 0.26993(16) 0.73007(16) 0.42233(13)
O8 O 0.40566(18) 0.8113(4) 0.35503(13)
C1 C 0.7365(5) 0.8682(3) 0.6515(2)
C2 C 0.7060(3) 0.9363(3) 0.63241(14)
H1 H 0.7269 1.0044 0.6451
C3 C 0.6439(3) 0.9062(3) 0.59422(12)
C4 C 0.6180(5) 0.8090(3) 0.5768(2)
H2 H 0.5790 0.7895 0.5507
C5 C 0.8030(5) 0.9015(2) 0.69154(17)
C6 C 0.6091(3) 0.9752(3) 0.57378(14)
O1T O 0.82863(18) 0.83580(25) 0.70681(8)
O3T O 0.62232(18) 0.56378(25) 0.59420(8)
O4T O 0.5689(2) 0.61773(28) 0.53712(9)
C2T C 0.7060(3) 0.7697(4) 0.63241(14)
H1T H 0.7269 0.7225 0.6451
C3T C 0.6439(3) 0.7377(4) 0.59422(12)
C6T C 0.6091(3) 0.6339(4) 0.57378(14)
Al2A Al 0.0000 0.5000 0.5000
Al3A Al 0.16932(15) 0.58466(17) 0.41659(5)
O1A O 0.00717(18) 0.83580(25) 0.70681(8)
O3A O -0.05854(18) 0.56378(25) 0.59420(8)
O4A O 0.04883(19) 0.61773(28) 0.53712(9)
O6A O 0.1345(3) 0.56724(34) 0.47476(10)
O7A O 0.26993(16) 0.53986(23) 0.42233(13)
O8A O 0.1887(4) 0.59436(44) 0.35503(13)
C1A C 0.1318(3) 0.8683(6) 0.6515(2)
C2A C 0.0637(3) 0.7697(4) 0.63241(14)
H1A H -0.0044 0.7225 0.6451
C3A C 0.0938(3) 0.7377(4) 0.59422(12)
C4A C 0.1910(3) 0.8090(6) 0.5768(2)
H2A H 0.2105 0.7895 0.5507
C5A C 0.0985(2) 0.9015(5) 0.69154(17)
C6A C 0.0248(3) 0.6339(4) 0.57378(14)
O1S O 0.16420(25) 0.99283(18) 0.70681(8)
O3S O 0.43622(25) 1.05854(18) 0.59420(8)
O4S O 0.38227(28) 0.95117(19) 0.53712(9)
C2S C 0.2303(4) 0.9363(3) 0.63241(14)
H1S H 0.2775 1.0044 0.6451
C3S C 0.2623(4) 0.9062(3) 0.59422(12)
C6S C 0.3661(4) 0.9752(3) 0.57378(14)
Al2B Al 0.5000 0.5000 0.5000
Al3B Al 0.41534(17) 0.58466(7) 0.41659(5)
O1B O 0.16420(25) 0.17137(18) 0.70681(8)
O3B O 0.43622(25) 0.37768(18) 0.59420(8)
O4B O 0.38227(28) 0.4311(2) 0.53712(9)
O6B O 0.43276(34) 0.56726(15) 0.47476(10)
O7B O 0.46014(23) 0.73007(16) 0.42233(13)
O8B O 0.40564(44) 0.59434(18) 0.35503(13)
C1B C 0.1317(6) 0.2635(5) 0.6515(2)
C2B C 0.2303(4) 0.2940(3) 0.63241(14)
H1B H 0.2775 0.2731 0.6451
C3B C 0.2623(4) 0.3561(3) 0.59422(12)
C4B C 0.1910(6) 0.3820(5) 0.5768(2)
H2B H 0.2105 0.4210 0.5507
C5B C 0.0985(5) 0.1970(5) 0.69154(17)
C6B C 0.3661(4) 0.3909(3) 0.57378(14)
O1R O 0.00717(18) 0.17137(18) 0.70681(8)
O3R O -0.05854(18) 0.37768(18) 0.59420(8)
O4R O 0.04883(19) 0.4311(2) 0.53712(9)
C2R C 0.0637(3) 0.2940(3) 0.63241(14)
H1R H -0.0044 0.2731 0.6451
C3R C 0.0938(3) 0.3561(3) 0.59422(12)
C6R C 0.0248(3) 0.3909(3) 0.57378(14)
Al1B Al 0.14792(14) 1.07396(10) 0.7500
O1J O 0.16420(25) 0.99283(18) 0.79319(8)
O3J O 0.43622(25) 1.05854(18) 0.90580(8)
O4J O 0.38227(28) 0.95117(19) 0.96288(9)
O5B O 0.3058(3) 1.1529(2) 0.7500
C1J C 0.1317(6) 0.8682(3) 0.8485(2)
C2J C 0.2303(4) 0.9363(3) 0.86759(14)
H1J H 0.2775 1.0044 0.8549
C3J C 0.2623(4) 0.9062(3) 0.90578(12)
C4J C 0.1910(6) 0.8090(3) 0.9232(2)
H2J H 0.2105 0.7895 0.9493
C5J C 0.0985(5) 0.9015(2) 0.80846(17)
C6J C 0.3661(4) 0.9752(3) 0.92622(14)
O1P O 0.00717(18) 0.83580(25) 0.79319(8)
O3P O -0.05854(18) 0.56378(25) 0.90580(8)
O4P O 0.04883(19) 0.61773(28) 0.96288(9)
C2P C 0.0637(3) 0.7697(4) 0.86759(14)
H1P H -0.0044 0.7225 0.8549
C3P C 0.0938(3) 0.7377(4) 0.90578(12)
C6P C 0.0248(3) 0.6339(4) 0.92622(14)
Al1A Al 0.92604(10) 0.85208(14) 0.7500
O1K O 0.82863(18) 0.83580(25) 0.79319(8)
O3K O 0.62232(18) 0.56378(25) 0.90580(8)
O4K O 0.5689(2) 0.61773(28) 0.96288(9)
O5A O 0.8471(2) 0.6942(3) 0.7500
C1K C 0.7365(5) 0.8683(6) 0.8485(2)
C2K C 0.7060(3) 0.7697(4) 0.86759(14)
H1K H 0.7269 0.7225 0.8549
C3K C 0.6439(3) 0.7377(4) 0.90578(12)
C4K C 0.6180(5) 0.8090(6) 0.9232(2)
H2K H 0.5790 0.7895 0.9493
C5K C 0.8030(5) 0.9015(5) 0.80846(17)
C6K C 0.6091(3) 0.6339(4) 0.92622(14)
O1O O 0.82863(18) 0.99283(18) 0.79319(8)
O3O O 0.62232(18) 1.05854(18) 0.90580(8)
O4O O 0.5689(2) 0.95117(19) 0.96288(9)
C2O C 0.7060(3) 0.9363(3) 0.86759(14)
H1O H 0.7269 1.0044 0.8549
C3O C 0.6439(3) 0.9062(3) 0.90578(12)
C6O C 0.6091(3) 0.9752(3) 0.92622(14)
O1I O 1.00717(18) 1.17137(18) 0.79319(8)
O3I O 0.94146(18) 1.37768(18) 0.90580(8)
O4I O 1.04883(19) 1.4311(2) 0.96288(9)
C1I C 1.1318(3) 1.2635(5) 0.8485(2)
C2I C 1.0637(3) 1.2940(3) 0.86759(14)
H1I H 0.9956 1.2731 0.8549
C3I C 1.0938(3) 1.3561(3) 0.90578(12)
C4I C 1.1910(3) 1.3820(5) 0.9232(2)
H2I H 1.2105 1.4210 0.9493
C5I C 1.0985(2) 1.1970(5) 0.80846(17)
C6I C 1.0248(3) 1.3909(3) 0.92622(14)
O1Q O 1.16420(25) 1.17137(18) 0.79319(8)
O3Q O 1.43622(25) 1.37768(18) 0.90580(8)
O4Q O 1.38227(28) 1.4311(2) 0.96288(9)
C2Q C 1.2303(4) 1.2940(3) 0.86759(14)
H1Q H 1.2775 1.2731 0.8549
C3Q C 1.2623(4) 1.3561(3) 0.90578(12)
C6Q C 1.3661(4) 1.3909(3) 0.92622(14)
Al3G Al 0.58466(17) 1.16932(15) 0.58341(5)
O6G O 0.56724(34) 1.1345(3) 0.52524(10)
O7G O 0.53986(23) 1.26993(16) 0.57767(13)
O8G O 0.59436(44) 1.1887(4) 0.64497(13)
Al3H Al 0.58466(7) 1.41534(17) 0.58341(5)
O6H O 0.56726(15) 1.43276(34) 0.52524(10)
O7H O 0.73007(16) 1.46014(23) 0.57767(13)
O8H O 0.59434(18) 1.40564(44) 0.64497(13)
O7F O 0.73007(16) 1.26993(16) 0.57767(13)
Al3F Al 0.83068(15) 1.41534(7) 0.58341(5)
O6F O 0.8655(3) 1.43274(15) 0.52524(10)
O8F O 0.8113(4) 1.40566(18) 0.64497(13)
Al1_2 Al -0.07396(10) 0.07396(10) 0.7500
Al1A_2 Al -0.07396(10) 0.85208(14) 0.7500
Al1B_2 Al 0.14792(14) 0.07396(10) 0.7500
Al1B_3 Al 1.14792(14) 1.07396(10) 0.7500
Al2A_2 Al 1.0000 1.5000 0.5000
Al2B_2 Al 0.5000 1.5000 0.5000
Al2C Al 0.5000 1.0000 1.0000
Al2D Al 0.0000 0.5000 1.0000
Al2D_2 Al 1.0000 1.5000 1.0000
Al2E Al 0.5000 0.5000 1.0000
Al2E_2 Al 1.5000 1.5000 1.0000
Al3C Al 0.58466(7) 1.16932(15) 0.91659(5)
Al3D Al -0.16932(15) 0.41534(17) 0.91659(5)
Al3D_2 Al 0.83068(15) 1.41534(17) 0.91659(5)
Al3E Al 0.58466(17) 0.41534(7) 0.91659(5)
Al3E_2 Al 1.58466(17) 1.41534(7) 0.91659(5)
Al3F_2 Al -0.16932(15) 0.41534(7) 0.58341(5)
Al3H_2 Al 0.58466(7) 0.41534(17) 0.58341(5)
O1A_2 O 1.00717(18) 0.83580(25) 0.70681(8)
O1B_2 O 0.16420(25) 1.17137(18) 0.70681(8)
O1P_2 O 1.00717(18) 0.83580(25) 0.79319(8)
O1Q_2 O 0.16420(25) 1.17137(18) 0.79319(8)
O1R_2 O 1.00717(18) 1.17137(18) 0.70681(8)
O2_2 O 0.0000 1.0000 0.7500
O3A_2 O 0.94146(18) 1.56378(25) 0.59420(8)
O3B_2 O 0.43622(25) 1.37768(18) 0.59420(8)
O3F O 0.05854(18) 0.62232(18) 0.40580(8)
O3G O 0.56378(25) 0.94146(18) 0.40580(8)
O3H O 0.37768(18) 0.43622(25) 0.40580(8)
O3L O 0.37768(18) 0.94146(18) 0.40580(8)
O3M O 0.05854(18) 0.43622(25) 0.40580(8)
O3N O 0.56378(25) 0.62232(18) 0.40580(8)
O3R_2 O 0.94146(18) 1.37768(18) 0.59420(8)
O3T_2 O 0.62232(18) 1.56378(25) 0.59420(8)
O4F O -0.04883(19) 0.5689(2) 0.46288(9)
O4G O 0.61773(28) 1.04883(19) 0.46288(9)
O4H O 0.4311(2) 0.38227(28) 0.46288(9)
O4L O 0.4311(2) 1.04883(19) 0.46288(9)
O4M O -0.04883(19) 0.38227(28) 0.46288(9)
O4N O 0.61773(28) 0.5689(2) 0.46288(9)
O6F_2 O -0.1345(3) 0.43274(15) 0.52524(10)
O6H_2 O 0.56726(15) 0.43276(34) 0.52524(10)
O9 O 0.3333 0.6667 0.5251(3)
O10 O 0.0059(7) 0.3740(5) 0.7500
O11 O 0.5025(4) 0.0049(9) 0.3120(3)
O12 O 0.1749(3) 0.8251(3) 0.4744(2)
O13 O 0.2148(7) 0.4295(14) 0.7500
O14 O 0.7866(6) 0.2134(6) 0.8241(4)
loop_
_geom_bond_atom_site_label_1
_geom_bond_atom_site_label_2
_geom_bond_site_symmetry_1
_geom_bond_site_symmetry_2
Al1 O1 1_555 1_555
Al2 O4 1_555 1_555
Al3 O6 1_555 1_555
O1 C5 1_555 1_555
O2 Al1 1_555 1_555
O3 C6 1_555 1_555
O4 C6 1_555 1_555
O5 Al1 1_555 1_555
O6 Al2 1_555 1_555
O7 Al3 1_555 1_555
O8 Al3 1_555 1_555
C1 C2 1_555 1_555
C2 H1 1_555 1_555
C3 C2 1_555 1_555
C4 C3 1_555 1_555
H2 C4 1_555 1_555
C5 C1 1_555 1_555
C6 C3 1_555 1_555
O1T C5 1_555 1_555
O3T C6T 1_555 1_555
O4T C6T 1_555 1_555
C2T C1 1_555 1_555
H1T C2T 1_555 1_555
C3T C4 1_555 1_555
C6T C3T 1_555 1_555
Al2A O4A 1_555 1_555
Al3A O7 1_555 1_555
O1A C5A 1_555 1_555
O3A C6A 1_555 1_555
O4A C6A 1_555 1_555
O6A Al2A 1_555 1_555
O7A Al3A 1_555 1_555
O8A Al3A 1_555 1_555
C1A C2A 1_555 1_555
C2A H1A 1_555 1_555
C3A C2A 1_555 1_555
C4A C3A 1_555 1_555
H2A C4A 1_555 1_555
C5A C1A 1_555 1_555
C6A C3A 1_555 1_555
O1S C5A 1_555 1_555
O3S C6S 1_555 1_555
O4S Al2 1_555 1_555
C2S C1A 1_555 1_555
H1S C2S 1_555 1_555
C3S C4A 1_555 1_555
C6S O4S 1_555 1_555
Al2B O4T 1_555 1_555
Al3B O7A 1_555 1_555
O1B C5B 1_555 1_555
O3B C6B 1_555 1_555
O4B Al2B 1_555 1_555
O6B Al2B 1_555 1_555
O7B Al3 1_555 1_555
O8B Al3B 1_555 1_555
C1B C2B 1_555 1_555
C2B H1B 1_555 1_555
C3B C2B 1_555 1_555
C4B C3B 1_555 1_555
H2B C4B 1_555 1_555
C5B C1B 1_555 1_555
C6B O4B 1_555 1_555
O1R C5B 1_555 1_555
O3R C6R 1_555 1_555
O4R Al2A 1_555 1_555
C2R C1B 1_555 1_555
H1R C2R 1_555 1_555
C3R C4B 1_555 1_555
C6R O4R 1_555 1_555
Al1B O1S 1_555 1_555
O1J Al1B 1_555 1_555
O3J C6J 1_555 1_555
O4J C6J 1_555 1_555
O5B Al1B 1_555 1_555
C1J C2J 1_555 1_555
C2J H1J 1_555 1_555
C3J C2J 1_555 1_555
C4J C3J 1_555 1_555
H2J C4J 1_555 1_555
C5J O1J 1_555 1_555
C6J C3J 1_555 1_555
O1P C5J 1_555 1_555
O3P C6P 1_555 1_555
O4P C6P 1_555 1_555
C2P C1J 1_555 1_555
H1P C2P 1_555 1_555
C3P C4J 1_555 1_555
C6P C3P 1_555 1_555
Al1A O2 1_555 1_555
O1K Al1A 1_555 1_555
O3K C6K 1_555 1_555
O4K C6K 1_555 1_555
O5A Al1A 1_555 1_555
C1K C2K 1_555 1_555
C2K H1K 1_555 1_555
C3K C2K 1_555 1_555
C4K C3K 1_555 1_555
H2K C4K 1_555 1_555
C5K O1K 1_555 1_555
C6K C3K 1_555 1_555
O1O Al1 1_555 1_555
O3O C6O 1_555 1_555
O4O C6O 1_555 1_555
C2O C1K 1_555 1_555
H1O C2O 1_555 1_555
C3O C4K 1_555 1_555
C6O C3O 1_555 1_555
O1I Al1 1_555 1_555
O3I C6I 1_555 1_555
O4I C6I 1_555 1_555
C1I C2I 1_555 1_555
C2I H1I 1_555 1_555
C3I C2I 1_555 1_555
C4I C3I 1_555 1_555
H2I C4I 1_555 1_555
C5I O1I 1_555 1_555
C6I C3I 1_555 1_555
O1Q C5I 1_555 1_555
O3Q C6Q 1_555 1_555
O4Q C6Q 1_555 1_555
C2Q C1I 1_555 1_555
H1Q C2Q 1_555 1_555
C3Q C4I 1_555 1_555
C6Q C3Q 1_555 1_555
Al3G O3 1_555 1_555
O6G Al2 1_555 1_555
O7G Al3G 1_555 1_555
O8G Al3G 1_555 1_555
Al3H O7G 1_555 1_555
O6H Al3H 1_555 1_555
O7H Al3H 1_555 1_555
O8H Al3H 1_555 1_555
O7F Al3G 1_555 1_555
Al3F O7H 1_555 1_555
O6F Al3F 1_555 1_555
O8F Al3F 1_555 1_555
Al1_2 O1R 1_555 1_555
Al1A_2 O1A 1_555 1_555
Al1B_2 O1B 1_555 1_555
Al1B_3 O2 1_555 1_555
Al2A_2 O6F 1_555 1_555
Al2B_2 O6H 1_555 1_555
Al2C O4J 1_555 1_555
Al2D O4P 1_555 1_555
Al2D_2 O4I 1_555 1_555
Al2E O4K 1_555 1_555
Al2E_2 O4Q 1_555 1_555
Al3C O3J 1_555 1_555
Al3D O3P 1_555 1_555
Al3D_2 O3I 1_555 1_555
Al3E O3K 1_555 1_555
Al3E_2 O3Q 1_555 1_555
Al3F_2 O3A 1_555 1_555
Al3H_2 O3T 1_555 1_555
O1A_2 Al1A 1_555 1_555
O1B_2 Al1B 1_555 1_555
O1P_2 Al1A 1_555 1_555
O1Q_2 Al1B 1_555 1_555
O1R_2 Al1 1_555 1_555
O2_2 Al1B 1_555 1_555
O3A_2 Al3F 1_555 1_555
O3B_2 Al3H 1_555 1_555
O3F Al3A 1_555 1_555
O3G Al3 1_555 1_555
O3H Al3B 1_555 1_555
O3L Al3 1_555 1_555
O3M Al3A 1_555 1_555
O3N Al3B 1_555 1_555
O3R_2 Al3F 1_555 1_555
O3T_2 Al3H 1_555 1_555
O4F Al2A 1_555 1_555
O4G Al2 1_555 1_555
O4H Al2B 1_555 1_555
O4L Al2 1_555 1_555
O4M Al2A 1_555 1_555
O4N Al2B 1_555 1_555
O6F_2 Al2A 1_555 1_555
O6H_2 Al2B 1_555 1_555
O1T Al1A 1_555 1_555
C2T C3T 1_555 1_555
Al3A O6A 1_555 1_555
O3S Al3G 1_555 1_555
C2S C3S 1_555 1_555
C3S C6S 1_555 1_555
Al3B O6B 1_555 1_555
Al3B O7B 1_555 1_555
O3B Al3H_2 1_555 1_555
C3B C6B 1_555 1_555
O3R Al3F_2 1_555 1_555
C2R C3R 1_555 1_555
C3R C6R 1_555 1_555
C1J C5J 1_555 1_555
O1P Al1A_2 1_555 1_555
C2P C3P 1_555 1_555
C1K C5K 1_555 1_555
C5K O1O 1_555 1_555
O3O Al3C 1_555 1_555
O4O Al2C 1_555 1_555
C2O C3O 1_555 1_555
C1I C5I 1_555 1_555
O1Q Al1B_3 1_555 1_555
C2Q C3Q 1_555 1_555
Al3G O6G 1_555 1_555
O7F Al3F 1_555 1_555
Al1A_2 O2_2 1_555 1_555
Al3F_2 O6F_2 1_555 1_555
Al3H_2 O6H_2 1_555 1_555

#END
