
#######################################################################
#
#                 Cambridge Crystallographic Data Centre
#                                CCDC 
#
#######################################################################
#
# If this CIF has been generated from an entry in the Cambridge 
# Structural Database, then it will include bibliographic, chemical, 
# crystal, experimental, refinement or atomic coordinate data resulting 
# from the CCDC's data processing and validation procedures.
#
#######################################################################

data_QEFXAC
_chemical_name_common            MOF-535
_chemical_formula_moiety         '(C42 H30 O16 Zr3)n'
_chemical_name_systematic        
catena-((\m~8~-4,4',4'',4'''-(benzene-1,2,4,5-tetrayltetraethyne-2,1-diyl)tetrabenzoato)-tetrakis(\m~2~-hydroxo)-tetra-aqua-tri-zirconium)
_symmetry_cell_setting           cubic
_symmetry_space_group_name_H-M   'P m -3 m'
_symmetry_Int_Tables_number      221
_space_group_name_Hall           '-P 4 2 3'
loop_
_symmetry_equiv_pos_site_id
_symmetry_equiv_pos_as_xyz
1 x,y,z
2 -x,-y,z
3 -x,y,-z
4 x,-y,-z
5 z,x,y
6 z,-x,-y
7 -z,-x,y
8 -z,x,-y
9 y,z,x
10 -y,z,-x
11 y,-z,-x
12 -y,-z,x
13 y,x,-z
14 -y,-x,-z
15 y,-x,z
16 -y,x,z
17 x,z,-y
18 -x,z,y
19 -x,-z,-y
20 x,-z,y
21 z,y,-x
22 z,-y,x
23 -z,y,x
24 -z,-y,-x
25 -x,-y,-z
26 x,y,-z
27 x,-y,z
28 -x,y,z
29 -z,-x,-y
30 -z,x,y
31 z,x,-y
32 z,-x,y
33 -y,-z,-x
34 y,-z,x
35 -y,z,x
36 y,z,-x
37 -y,-x,z
38 y,x,z
39 -y,x,-z
40 y,-x,-z
41 -x,-z,y
42 x,-z,-y
43 x,z,y
44 -x,z,-y
45 -z,-y,x
46 -z,y,-x
47 z,-y,-x
48 z,y,x
_cell_length_a                   19.410(2)
_cell_length_b                   19.410(2)
_cell_length_c                   19.410(2)
_cell_angle_alpha                90
_cell_angle_beta                 90
_cell_angle_gamma                90
_cell_volume                     7312.68
_exptl_crystal_colour            colorless
_exptl_crystal_description       cubic
_cell_formula_units_Z            2
loop_
_atom_site_label
_atom_site_type_symbol
_atom_site_fract_x
_atom_site_fract_y
_atom_site_fract_z
_atom_site_U_iso_or_equiv
_atom_site_thermal_displace_type
Zr1 Zr 0.0000 0.12701(13) 0.0000 0.0907 Uani
O1 O 0.0594(11) 0.0594(11) 0.0594(11) 0.1380 Uani
C1 C 0.0000 0.1585(17) 0.1585(17) 0.2267 Uani
C2 C 0.0000 0.318(12) 0.217(10) 0.6600 Uiso
C3 C 0.0000 0.242(3) 0.189(3) 0.2500 Uiso
C4 C 0.0000 0.330(9) 0.285(8) 0.5900 Uiso
O2 O 0.0000 0.1835(19) 0.089(2) 0.2477 Uani
Zr1H Zr 0.12701(13) 0.0000 0.0000 0.0907 Uani
Zr1E Zr 0.0000 0.0000 -0.12701(13) 0.0907 Uani
Zr1D Zr 0.0000 0.0000 0.12701(13) 0.0907 Uani
Zr1I Zr -0.12701(13) 0.0000 0.0000 0.0907 Uani
Zr1A Zr 0.0000 -0.12701(13) 0.0000 0.0907 Uani
O1C O 0.0594(11) -0.0594(11) -0.0594(11) 0.1380 Uani
O1B O -0.0594(11) 0.0594(11) -0.0594(11) 0.1380 Uani
O1L O 0.0594(11) 0.0594(11) -0.0594(11) 0.1380 Uani
O1N O 0.0594(11) -0.0594(11) 0.0594(11) 0.1380 Uani
O1O O -0.0594(11) 0.0594(11) 0.0594(11) 0.1380 Uani
O1M O -0.0594(11) -0.0594(11) -0.0594(11) 0.1380 Uani
O1A O -0.0594(11) -0.0594(11) 0.0594(11) 0.1380 Uani
C1A C 0.0000 -0.1585(17) 0.1585(17) 0.2267 Uani
C1K C -0.1585(17) -0.1585(17) 0.0000 0.2267 Uani
C1F C -0.1585(17) 0.0000 0.1585(17) 0.2267 Uani
C1B C 0.0000 0.1585(17) -0.1585(17) 0.2267 Uani
C1E C 0.1585(17) 0.0000 -0.1585(17) 0.2267 Uani
C1H C 0.1585(17) 0.1585(17) 0.0000 0.2267 Uani
C1I C -0.1585(17) 0.1585(17) 0.0000 0.2267 Uani
C1G C -0.1585(17) 0.0000 -0.1585(17) 0.2267 Uani
C1C C 0.0000 -0.1585(17) -0.1585(17) 0.2267 Uani
C1J C 0.1585(17) -0.1585(17) 0.0000 0.2267 Uani
C1D C 0.1585(17) 0.0000 0.1585(17) 0.2267 Uani
C2S C 0.0000 -0.217(10) 0.318(12) 0.6600 Uiso
C2A C 0.0000 -0.318(12) 0.217(10) 0.6600 Uiso
C2W C -0.217(10) -0.318(12) 0.0000 0.6600 Uiso
C2K C -0.318(12) -0.217(10) 0.0000 0.6600 Uiso
C2O C -0.318(12) 0.0000 0.217(10) 0.6600 Uiso
C2F C -0.217(10) 0.0000 0.318(12) 0.6600 Uiso
C2Q C 0.0000 0.217(10) 0.318(12) 0.6600 Uiso
C2B C 0.0000 0.318(12) -0.217(10) 0.6600 Uiso
C2E C 0.217(10) 0.0000 -0.318(12) 0.6600 Uiso
C2H C 0.318(12) 0.217(10) 0.0000 0.6600 Uiso
C2V C -0.217(10) 0.318(12) 0.0000 0.6600 Uiso
C2I C -0.318(12) 0.217(10) 0.0000 0.6600 Uiso
C2M C -0.318(12) 0.0000 -0.217(10) 0.6600 Uiso
C2G C -0.217(10) 0.0000 -0.318(12) 0.6600 Uiso
C2R C 0.0000 -0.217(10) -0.318(12) 0.6600 Uiso
C2U C 0.217(10) -0.318(12) 0.0000 0.6600 Uiso
C2J C 0.318(12) -0.217(10) 0.0000 0.6600 Uiso
C2N C 0.318(12) 0.0000 0.217(10) 0.6600 Uiso
C2D C 0.217(10) 0.0000 0.318(12) 0.6600 Uiso
C2C C 0.0000 -0.318(12) -0.217(10) 0.6600 Uiso
C2T C 0.217(10) 0.318(12) 0.0000 0.6600 Uiso
C2L C 0.318(12) 0.0000 -0.217(10) 0.6600 Uiso
C2P C 0.0000 0.217(10) -0.318(12) 0.6600 Uiso
C3S C 0.0000 -0.189(3) 0.242(3) 0.2500 Uiso
C3A C 0.0000 -0.242(3) 0.189(3) 0.2500 Uiso
C3W C -0.189(3) -0.242(3) 0.0000 0.2500 Uiso
C3K C -0.242(3) -0.189(3) 0.0000 0.2500 Uiso
C3O C -0.242(3) 0.0000 0.189(3) 0.2500 Uiso
C3F C -0.189(3) 0.0000 0.242(3) 0.2500 Uiso
C3Q C 0.0000 0.189(3) 0.242(3) 0.2500 Uiso
C3B C 0.0000 0.242(3) -0.189(3) 0.2500 Uiso
C3P C 0.0000 0.189(3) -0.242(3) 0.2500 Uiso
C3E C 0.189(3) 0.0000 -0.242(3) 0.2500 Uiso
C3L C 0.242(3) 0.0000 -0.189(3) 0.2500 Uiso
C3H C 0.242(3) 0.189(3) 0.0000 0.2500 Uiso
C3T C 0.189(3) 0.242(3) 0.0000 0.2500 Uiso
C3V C -0.189(3) 0.242(3) 0.0000 0.2500 Uiso
C3I C -0.242(3) 0.189(3) 0.0000 0.2500 Uiso
C3M C -0.242(3) 0.0000 -0.189(3) 0.2500 Uiso
C3G C -0.189(3) 0.0000 -0.242(3) 0.2500 Uiso
C3R C 0.0000 -0.189(3) -0.242(3) 0.2500 Uiso
C3C C 0.0000 -0.242(3) -0.189(3) 0.2500 Uiso
C3U C 0.189(3) -0.242(3) 0.0000 0.2500 Uiso
C3J C 0.242(3) -0.189(3) 0.0000 0.2500 Uiso
C3N C 0.242(3) 0.0000 0.189(3) 0.2500 Uiso
C3D C 0.189(3) 0.0000 0.242(3) 0.2500 Uiso
C4S C 0.0000 -0.285(8) 0.330(9) 0.5900 Uiso
C4A C 0.0000 -0.330(9) 0.285(8) 0.5900 Uiso
C4W C -0.285(8) -0.330(9) 0.0000 0.5900 Uiso
C4K C -0.330(9) -0.285(8) 0.0000 0.5900 Uiso
C4O C -0.330(9) 0.0000 0.285(8) 0.5900 Uiso
C4F C -0.285(8) 0.0000 0.330(9) 0.5900 Uiso
C4Q C 0.0000 0.285(8) 0.330(9) 0.5900 Uiso
C4B C 0.0000 0.330(9) -0.285(8) 0.5900 Uiso
C4P C 0.0000 0.285(8) -0.330(9) 0.5900 Uiso
C4E C 0.285(8) 0.0000 -0.330(9) 0.5900 Uiso
C4L C 0.330(9) 0.0000 -0.285(8) 0.5900 Uiso
C4H C 0.330(9) 0.285(8) 0.0000 0.5900 Uiso
C4T C 0.285(8) 0.330(9) 0.0000 0.5900 Uiso
C4V C -0.285(8) 0.330(9) 0.0000 0.5900 Uiso
C4I C -0.330(9) 0.285(8) 0.0000 0.5900 Uiso
C4M C -0.330(9) 0.0000 -0.285(8) 0.5900 Uiso
C4G C -0.285(8) 0.0000 -0.330(9) 0.5900 Uiso
C4R C 0.0000 -0.285(8) -0.330(9) 0.5900 Uiso
C4C C 0.0000 -0.330(9) -0.285(8) 0.5900 Uiso
C4U C 0.285(8) -0.330(9) 0.0000 0.5900 Uiso
C4J C 0.330(9) -0.285(8) 0.0000 0.5900 Uiso
C4N C 0.330(9) 0.0000 0.285(8) 0.5900 Uiso
C4D C 0.285(8) 0.0000 0.330(9) 0.5900 Uiso
O2S O 0.0000 -0.089(2) 0.1835(19) 0.2477 Uani
O2A O 0.0000 -0.1835(19) 0.089(2) 0.2477 Uani
O2W O -0.089(2) -0.1835(19) 0.0000 0.2477 Uani
O2K O -0.1835(19) -0.089(2) 0.0000 0.2477 Uani
O2O O -0.1835(19) 0.0000 0.089(2) 0.2477 Uani
O2F O -0.089(2) 0.0000 0.1835(19) 0.2477 Uani
O2Q O 0.0000 0.089(2) 0.1835(19) 0.2477 Uani
O2B O 0.0000 0.1835(19) -0.089(2) 0.2477 Uani
O2P O 0.0000 0.089(2) -0.1835(19) 0.2477 Uani
O2E O 0.089(2) 0.0000 -0.1835(19) 0.2477 Uani
O2L O 0.1835(19) 0.0000 -0.089(2) 0.2477 Uani
O2H O 0.1835(19) 0.089(2) 0.0000 0.2477 Uani
O2T O 0.089(2) 0.1835(19) 0.0000 0.2477 Uani
O2V O -0.089(2) 0.1835(19) 0.0000 0.2477 Uani
O2I O -0.1835(19) 0.089(2) 0.0000 0.2477 Uani
O2M O -0.1835(19) 0.0000 -0.089(2) 0.2477 Uani
O2G O -0.089(2) 0.0000 -0.1835(19) 0.2477 Uani
O2R O 0.0000 -0.089(2) -0.1835(19) 0.2477 Uani
O2C O 0.0000 -0.1835(19) -0.089(2) 0.2477 Uani
O2U O 0.089(2) -0.1835(19) 0.0000 0.2477 Uani
O2J O 0.1835(19) -0.089(2) 0.0000 0.2477 Uani
O2N O 0.1835(19) 0.0000 0.089(2) 0.2477 Uani
O2D O 0.089(2) 0.0000 0.1835(19) 0.2477 Uani
C5? C 0.0000 0.458(9) 0.274(11) 0.3400 Uiso
C6? C 0.0000 0.402(4) 0.402(4) 0.3100 Uiso
C7? C 0.0000 0.463(3) 0.345(3) 0.1110 Uiso
C8? C -0.039(2) 0.5000 0.434(2) 0.2400 Uiso
loop_
_atom_site_aniso_label
_atom_site_aniso_U_11
_atom_site_aniso_U_22
_atom_site_aniso_U_33
_atom_site_aniso_U_23
_atom_site_aniso_U_13
_atom_site_aniso_U_12
Zr1 0.112(4) 0.048(3) 0.112(4) 0.000 0.000 0.000
O1 0.138(12) 0.138(12) 0.138(12) 0.033(11) 0.033(11) 0.033(11)
C1 0.26(7) 0.21(6) 0.21(6) -0.16(8) 0.000 0.000
O2 0.163(19) 0.20(2) 0.38(4) -0.14(3) 0.000 0.000
Zr1H 0.048 0.112 0.112 0 0 0
Zr1E 0.112 0.112 0.048 0 0 0
Zr1D 0.112 0.112 0.048 0 0 0
Zr1I 0.048 0.112 0.112 0 0 0
Zr1A 0.112 0.048 0.112 0 0 0
O1C 0.138 0.138 0.138 0.033 -0.033 -0.033
O1B 0.138 0.138 0.138 -0.033 0.033 -0.033
O1L 0.138 0.138 0.138 -0.033 -0.033 0.033
O1N 0.138 0.138 0.138 -0.033 0.033 -0.033
O1O 0.138 0.138 0.138 0.033 -0.033 -0.033
O1M 0.138 0.138 0.138 0.033 0.033 0.033
O1A 0.138 0.138 0.138 -0.033 -0.033 0.033
C1A 0.26 0.21 0.21 0.16 0 0
C1K 0.21 0.21 0.26 0 0 -0.16
C1F 0.21 0.26 0.21 0 0.16 0
C1B 0.26 0.21 0.21 0.16 0 0
C1E 0.21 0.26 0.21 0 0.16 0
C1H 0.21 0.21 0.26 0 0 -0.16
C1I 0.21 0.21 0.26 0 0 0.16
C1G 0.21 0.26 0.21 0 -0.16 0
C1C 0.26 0.21 0.21 -0.16 0 0
C1J 0.21 0.21 0.26 0 0 0.16
C1D 0.21 0.26 0.21 0 -0.16 0
O2S 0.163 0.38 0.2 0.14 0 0
O2A 0.163 0.2 0.38 0.14 0 0
O2W 0.38 0.2 0.163 0 0 -0.14
O2K 0.2 0.38 0.163 0 0 -0.14
O2O 0.2 0.163 0.38 0 0.14 0
O2F 0.38 0.163 0.2 0 0.14 0
O2Q 0.163 0.38 0.2 -0.14 0 0
O2B 0.163 0.2 0.38 0.14 0 0
O2P 0.163 0.38 0.2 0.14 0 0
O2E 0.38 0.163 0.2 0 0.14 0
O2L 0.2 0.163 0.38 0 0.14 0
O2H 0.2 0.38 0.163 0 0 -0.14
O2T 0.38 0.2 0.163 0 0 -0.14
O2V 0.38 0.2 0.163 0 0 0.14
O2I 0.2 0.38 0.163 0 0 0.14
O2M 0.2 0.163 0.38 0 -0.14 0
O2G 0.38 0.163 0.2 0 -0.14 0
O2R 0.163 0.38 0.2 -0.14 0 0
O2C 0.163 0.2 0.38 -0.14 0 0
O2U 0.38 0.2 0.163 0 0 0.14
O2J 0.2 0.38 0.163 0 0 0.14
O2N 0.2 0.163 0.38 0 -0.14 0
O2D 0.38 0.163 0.2 0 -0.14 0
loop_
_geom_bond_atom_site_label_1
_geom_bond_atom_site_label_2
_geom_bond_site_symmetry_1
_geom_bond_site_symmetry_2
Zr1 O1 1_555 1_555
O1 Zr1H 1_555 1_555
C1 C3 1_555 1_555
C2 C3 1_555 1_555
C3 C3Q 1_555 1_555
C4 C2 1_555 1_555
O2 Zr1 1_555 1_555
Zr1H O1C 1_555 1_555
Zr1E O1C 1_555 1_555
Zr1D O1 1_555 1_555
Zr1I O1B 1_555 1_555
Zr1A O1C 1_555 1_555
O1B Zr1 1_555 1_555
O1L Zr1 1_555 1_555
O1N Zr1H 1_555 1_555
O1O Zr1 1_555 1_555
O1M Zr1E 1_555 1_555
O1A Zr1D 1_555 1_555
C1A C3S 1_555 1_555
C1K C3W 1_555 1_555
C1F C3O 1_555 1_555
C1B C3B 1_555 1_555
C1E C3E 1_555 1_555
C1H C3H 1_555 1_555
C1I C3V 1_555 1_555
C1G C3M 1_555 1_555
C1C C3R 1_555 1_555
C1J C3U 1_555 1_555
C1D C3N 1_555 1_555
C2S C3S 1_555 1_555
C2A C3A 1_555 1_555
C2W C3W 1_555 1_555
C2K C3K 1_555 1_555
C2O C3O 1_555 1_555
C2F C3F 1_555 1_555
C2Q C3Q 1_555 1_555
C2B C3B 1_555 1_555
C2E C3E 1_555 1_555
C2H C3H 1_555 1_555
C2V C3V 1_555 1_555
C2I C3I 1_555 1_555
C2M C3M 1_555 1_555
C2G C3G 1_555 1_555
C2R C3R 1_555 1_555
C2U C3U 1_555 1_555
C2J C3J 1_555 1_555
C2N C3N 1_555 1_555
C2D C3D 1_555 1_555
C2C C3C 1_555 1_555
C2T C3T 1_555 1_555
C2L C3L 1_555 1_555
C2P C3P 1_555 1_555
C3S C3A 1_555 1_555
C3A C1A 1_555 1_555
C3W C3K 1_555 1_555
C3K C1K 1_555 1_555
C3O C3F 1_555 1_555
C3F C1F 1_555 1_555
C3Q C1 1_555 1_555
C3B C3P 1_555 1_555
C3P C1B 1_555 1_555
C3E C3L 1_555 1_555
C3L C1E 1_555 1_555
C3H C3T 1_555 1_555
C3T C1H 1_555 1_555
C3V C3I 1_555 1_555
C3I C1I 1_555 1_555
C3M C3G 1_555 1_555
C3G C1G 1_555 1_555
C3R C3C 1_555 1_555
C3C C1C 1_555 1_555
C3U C3J 1_555 1_555
C3J C1J 1_555 1_555
C3N C3D 1_555 1_555
C3D C1D 1_555 1_555
C4S C2S 1_555 1_555
C4A C2A 1_555 1_555
C4W C2W 1_555 1_555
C4K C2K 1_555 1_555
C4O C2O 1_555 1_555
C4F C2F 1_555 1_555
C4Q C4 1_555 1_555
C4B C2B 1_555 1_555
C4P C2P 1_555 1_555
C4E C2E 1_555 1_555
C4L C2L 1_555 1_555
C4H C2H 1_555 1_555
C4T C2T 1_555 1_555
C4V C2V 1_555 1_555
C4I C2I 1_555 1_555
C4M C2M 1_555 1_555
C4G C2G 1_555 1_555
C4R C2R 1_555 1_555
C4C C2C 1_555 1_555
C4U C2U 1_555 1_555
C4J C2J 1_555 1_555
C4N C2N 1_555 1_555
C4D C2D 1_555 1_555
O2S Zr1D 1_555 1_555
O2A Zr1A 1_555 1_555
O2W Zr1A 1_555 1_555
O2K Zr1I 1_555 1_555
O2O Zr1I 1_555 1_555
O2F Zr1D 1_555 1_555
O2Q C1 1_555 1_555
O2B Zr1 1_555 1_555
O2P Zr1E 1_555 1_555
O2E Zr1E 1_555 1_555
O2L Zr1H 1_555 1_555
O2H Zr1H 1_555 1_555
O2T Zr1 1_555 1_555
O2V Zr1 1_555 1_555
O2I Zr1I 1_555 1_555
O2M Zr1I 1_555 1_555
O2G Zr1E 1_555 1_555
O2R Zr1E 1_555 1_555
O2C Zr1A 1_555 1_555
O2U Zr1A 1_555 1_555
O2J Zr1H 1_555 1_555
O2N Zr1H 1_555 1_555
O2D Zr1D 1_555 1_555
C1 O2 1_555 1_555
Zr1H O1L 1_555 1_555
Zr1E O1B 1_555 1_555
Zr1E O1L 1_555 1_555
Zr1D O1N 1_555 1_555
Zr1D O1O 1_555 1_555
Zr1D O2Q 1_555 1_555
Zr1I O1O 1_555 1_555
Zr1I O1M 1_555 1_555
Zr1I O1A 1_555 1_555
Zr1A O1N 1_555 1_555
Zr1A O1M 1_555 1_555
Zr1A O1A 1_555 1_555
C1A O2S 1_555 1_555
C1A O2A 1_555 1_555
C1K O2W 1_555 1_555
C1K O2K 1_555 1_555
C1F O2O 1_555 1_555
C1F O2F 1_555 1_555
C1B O2B 1_555 1_555
C1B O2P 1_555 1_555
C1E O2E 1_555 1_555
C1E O2L 1_555 1_555
C1H O2H 1_555 1_555
C1H O2T 1_555 1_555
C1I O2V 1_555 1_555
C1I O2I 1_555 1_555
C1G O2M 1_555 1_555
C1G O2G 1_555 1_555
C1C O2R 1_555 1_555
C1C O2C 1_555 1_555
C1J O2U 1_555 1_555
C1J O2J 1_555 1_555
C1D O2N 1_555 1_555
C1D O2D 1_555 1_555
C2Q C4Q 1_555 1_555
C4S C4A 1_555 1_555
C4W C4K 1_555 1_555
C4O C4F 1_555 1_555
C4B C4P 1_555 1_555
C4E C4L 1_555 1_555
C4H C4T 1_555 1_555
C4V C4I 1_555 1_555
C4M C4G 1_555 1_555
C4R C4C 1_555 1_555
C4U C4J 1_555 1_555
C4N C4D 1_555 1_555

#END
