
#######################################################################
#
#                 Cambridge Crystallographic Data Centre
#                                CCDC 
#
#######################################################################
#
# If this CIF has been generated from an entry in the Cambridge 
# Structural Database, then it will include bibliographic, chemical, 
# crystal, experimental, refinement or atomic coordinate data resulting 
# from the CCDC's data processing and validation procedures.
#
#######################################################################

data_OFIWOQ
_chemical_formula_moiety         '(C5 H12 N1 1+)2n,n(H4 O12 P4 Zn3 2-)'
_chemical_name_systematic        
'catena-(bis(Cyclopentylammonium) tetrakis(\m~3~-phosphito)-tri-zinc)'
_symmetry_cell_setting           tetragonal
_symmetry_space_group_name_H-M   'P 4 n c'
_symmetry_Int_Tables_number      104
_space_group_name_Hall           'P 4 -2n'
loop_
_symmetry_equiv_pos_site_id
_symmetry_equiv_pos_as_xyz
1 x,y,z
2 -x,-y,z
3 -y,x,z
4 y,-x,z
5 1/2+x,1/2-y,1/2+z
6 1/2-x,1/2+y,1/2+z
7 1/2-y,1/2-x,1/2+z
8 1/2+y,1/2+x,1/2+z
_cell_length_a                   23.545(3)
_cell_length_b                   23.545(3)
_cell_length_c                   8.964(2)
_cell_angle_alpha                90
_cell_angle_beta                 90
_cell_angle_gamma                90
_cell_volume                     4969.35
_cell_formula_units_Z            8
loop_
_atom_site_label
_atom_site_type_symbol
_atom_site_fract_x
_atom_site_fract_y
_atom_site_fract_z
Zn1 Zn 0.93173(3) 0.85038(3) 0.45315(8)
Zn2 Zn 0.85112(3) 0.93688(3) -0.04289(8)
Zn3 Zn 0.75410(3) 0.74539(3) 0.22039(15)
P1 P 0.75199(6) 0.84119(6) -0.0341(2)
P2 P 0.85027(7) 0.74272(6) 0.4651(2)
P3 P 0.88091(7) 0.95703(6) 0.62602(19)
P4 P 0.95374(7) 0.88644(7) 0.12625(19)
O1 O 0.9205(2) 0.8943(2) -0.0202(7)
O2 O 0.9140(2) 0.8706(3) 0.2514(6)
O3 O 0.7307(2) 0.8091(2) 0.1017(6)
O4 O 0.9048(2) 0.7747(2) 0.5039(6)
O5 O 0.8128(2) 0.7755(2) 0.3545(6)
O6 O 0.7837(2) 0.8056(2) -0.1466(6)
O7 O 0.8197(2) 0.7243(2) 0.6058(6)
O8 O 0.7857(3) 0.8933(2) 0.0157(7)
O9 O 0.8438(2) 0.9691(2) 0.7622(6)
O10 O 0.8875(2) 0.8951(2) 0.5945(6)
O11 O 0.8559(2) 0.9880(2) 0.4861(7)
O12 O 1.0025(2) 0.8462(2) 0.1055(7)
H1 H 0.6991(17) 0.848(3) -0.090(10)
H2 H 0.980(4) 0.935(2) 0.168(11)
H3 H 0.862(3) 0.6922(19) 0.401(9)
H4 H 0.925(3) 0.990(3) 0.665(11)
Zn1C Zn 0.85038(3) 1.06827(3) 0.45315(8)
Zn2_2 Zn 0.85112(3) 0.93688(3) 0.95711(8)
Zn2B Zn 1.06312(3) 0.85112(3) -0.04289(8)
Zn3F Zn 0.75461(3) 0.74590(3) -0.27961(15)
Zn3F_2 Zn 0.75461(3) 0.74590(3) 0.72039(15)
O6F O 0.6944(2) 0.7163(2) 0.3534(6)
O7F O 0.7757(2) 0.6803(2) 0.1058(6)
O9_2 O 0.8438(2) 0.9691(2) -0.2378(6)
O11B O 1.0120(2) 0.8559(2) 0.4861(7)
O12C O 0.8462(2) 0.9975(2) 0.1055(7)
N1 N 0.9107(4) 0.7896(3) 0.8240(8)
H5 H 0.9044 0.8161 0.8929
H6 H 0.8785 0.7824 0.7753
H7 H 0.9368 0.8019 0.7601
C1 C 0.9133(6) 0.7257(5) 1.0465(14)
H8 H 0.8727 0.7313 1.0569
H9 H 0.9326 0.7508 1.1156
C2 C 0.9454(8) 0.6883(6) 0.8051(19)
H10 H 0.9792 0.6949 0.7457
H11 H 0.9143 0.6770 0.7406
C3 C 0.9281(6) 0.6665(7) 1.0785(17)
H12 H 0.8942 0.6448 1.1025
H13 H 0.9541 0.6644 1.1622
C4 C 0.9565(9) 0.6428(5) 0.935(3)
H14 H 0.9401 0.6064 0.9090
H15 H 0.9970 0.6378 0.9512
C5 C 0.9307(8) 0.7378(5) 0.8959(14)
H16 H 0.9694 0.7505 0.9181
N2 N 0.7919(3) 0.9006(3) 0.3306(7)
H17 H 0.8084 0.8732 0.3833
H18 H 0.8119 0.9325 0.3401
H19 H 0.7907 0.8906 0.2349
C6 C 0.7252(5) 0.9081(4) 0.5480(12)
H20 H 0.7495 0.9352 0.5984
H21 H 0.7328 0.8704 0.5873
C7 C 0.7343(5) 0.9098(8) 0.3855(14)
H22 H 0.7167 0.8737 0.3565
C8 C 0.6643(7) 0.9233(6) 0.567(2)
H23 H 0.6591 0.9465 0.6551
H24 H 0.6413 0.8893 0.5767
C9 C 0.6467(7) 0.9575(11) 0.422(3)
H25 H 0.6412 0.9973 0.4458
H26 H 0.6116 0.9425 0.3814
C10 C 0.6973(6) 0.9497(7) 0.3073(19)
H27 H 0.6839 0.9341 0.2136
H28 H 0.7164 0.9855 0.2884
loop_
_geom_bond_atom_site_label_1
_geom_bond_atom_site_label_2
_geom_bond_site_symmetry_1
_geom_bond_site_symmetry_2
Zn1 O2 1_555 1_555
Zn2 O1 1_555 1_555
Zn3 O3 1_555 1_555
P1 O3 1_555 1_555
P2 O4 1_555 1_555
P3 O9 1_555 1_555
P4 O1 1_555 1_555
O2 P4 1_555 1_555
O4 Zn1 1_555 1_555
O5 Zn3 1_555 1_555
O6 P1 1_555 1_555
O7 P2 1_555 1_555
O8 Zn2 1_555 1_555
O9 Zn2_2 1_555 1_555
O10 Zn1 1_555 1_555
O11 P3 1_555 1_555
O12 P4 1_555 1_555
H1 P1 1_555 1_555
H2 P4 1_555 1_555
H3 P2 1_555 1_555
H4 P3 1_555 1_555
N1 H5 1_555 1_555
H6 N1 1_555 1_555
H7 N1 1_555 1_555
C1 H8 1_555 1_555
H9 C1 1_555 1_555
C2 H10 1_555 1_555
H11 C2 1_555 1_555
C3 C1 1_555 1_555
H12 C3 1_555 1_555
H13 C3 1_555 1_555
C4 C2 1_555 1_555
H14 C4 1_555 1_555
H15 C4 1_555 1_555
C5 N1 1_555 1_555
H16 C5 1_555 1_555
N2 H17 1_555 1_555
H18 N2 1_555 1_555
H19 N2 1_555 1_555
C6 H20 1_555 1_555
H21 C6 1_555 1_555
C7 N2 1_555 1_555
H22 C7 1_555 1_555
C8 C6 1_555 1_555
H23 C8 1_555 1_555
H24 C8 1_555 1_555
C9 C8 1_555 1_555
H25 C9 1_555 1_555
H26 C9 1_555 1_555
C10 C7 1_555 1_555
H27 C10 1_555 1_555
H28 C10 1_555 1_555
Zn1C O11 1_555 1_555
Zn2B O12 1_555 1_555
Zn3F O6 1_555 1_555
Zn3F_2 O7 1_555 1_555
O6F Zn3 1_555 1_555
O7F Zn3 1_555 1_555
O9_2 Zn2 1_555 1_555
O11B Zn1 1_555 1_555
O12C Zn2 1_555 1_555
P1 O8 1_555 1_555
P2 O5 1_555 1_555
P3 O10 1_555 1_555
C1 C5 1_555 1_555
C2 C5 1_555 1_555
C3 C4 1_555 1_555
C6 C7 1_555 1_555
C9 C10 1_555 1_555

#END
