
#######################################################################
#
#                 Cambridge Crystallographic Data Centre
#                                CCDC 
#
#######################################################################
#
# If this CIF has been generated from an entry in the Cambridge 
# Structural Database, then it will include bibliographic, chemical, 
# crystal, experimental, refinement or atomic coordinate data resulting 
# from the CCDC's data processing and validation procedures.
#
#######################################################################

data_FETSII
_chemical_formula_moiety         'C48 H54 N18 Ni3 O24 P6,9(H2 O1)'
_chemical_name_systematic        
'Hexa-aqua-hexakis(\m~2~-4-(4-phenylphosphonate)-4H-1,2,4-triazole)-tri-nickel nonahydrate'
_symmetry_cell_setting           rhombohedral
_symmetry_space_group_name_H-M   'R -3'
_symmetry_Int_Tables_number      148
_space_group_name_Hall           '-R 3'
loop_
_symmetry_equiv_pos_site_id
_symmetry_equiv_pos_as_xyz
1 x,y,z
2 -y,x-y,z
3 -x+y,-x,z
4 2/3+x,1/3+y,1/3+z
5 2/3-y,1/3+x-y,1/3+z
6 2/3-x+y,1/3-x,1/3+z
7 1/3+x,2/3+y,2/3+z
8 1/3-y,2/3+x-y,2/3+z
9 1/3-x+y,2/3-x,2/3+z
10 -x,-y,-z
11 y,-x+y,-z
12 x-y,x,-z
13 1/3-x,2/3-y,2/3-z
14 1/3+y,2/3-x+y,2/3-z
15 1/3+x-y,2/3+x,2/3-z
16 2/3-x,1/3-y,1/3-z
17 2/3+y,1/3-x+y,1/3-z
18 2/3+x-y,1/3+x,1/3-z
_cell_length_a                   20.319(3)
_cell_length_b                   20.319(3)
_cell_length_c                   14.754(2)
_cell_angle_alpha                90
_cell_angle_beta                 90
_cell_angle_gamma                120
_cell_volume                     5275.27
_exptl_crystal_colour            purple
_exptl_crystal_description       block
_cell_formula_units_Z            3
loop_
_atom_site_label
_atom_site_type_symbol
_atom_site_fract_x
_atom_site_fract_y
_atom_site_fract_z
_atom_site_U_iso_or_equiv
_atom_site_thermal_displace_type
Ni1 Ni 1.0000 0.0000 0.0000 0.0163 Uani
Ni2 Ni 1.0000 0.0000 0.25426(4) 0.0184 Uani
P1 P 0.55604(5) 0.05967(5) 0.12304(5) 0.0263 Uani
C1 C 0.78333(18) 0.06416(18) 0.1307(2) 0.0245 Uani
C2 C 0.77335(19) 0.10734(19) 0.0663(2) 0.0296 Uani
H1 H 0.8118 0.1361 0.0251 0.0360 Uiso
C3 C 0.64790(18) 0.06563(18) 0.1254(2) 0.0271 Uani
C4 C 0.70547(18) 0.10748(19) 0.0637(2) 0.0292 Uani
H2 H 0.6982 0.1361 0.0198 0.0350 Uiso
C5 C 0.7283(2) 0.0238(2) 0.1941(2) 0.0397 Uani
H3 H 0.7359 -0.0045 0.2381 0.0480 Uiso
C6 C 0.6617(2) 0.0259(2) 0.1917(2) 0.0423 Uani
H4 H 0.6250 0.0000 0.2359 0.0510 Uiso
O1 O 0.54985(13) 0.09538(13) 0.03583(15) 0.0308 Uani
O2 O 0.54425(15) 0.08915(17) 0.20902(16) 0.0461 Uani
O3 O 0.49845(14) -0.02861(14) 0.11871(16) 0.0421 Uani
H5 H 0.4882 -0.0418 0.0656 0.0630 Uiso
C7 C 0.88220(17) 0.04303(17) 0.20180(19) 0.0237 Uani
H6 H 0.8683 0.0430 0.2619 0.0280 Uiso
C8 C 0.88685(17) 0.05154(17) 0.05641(19) 0.0230 Uani
H7 H 0.8771 0.0588 -0.0032 0.0280 Uiso
N1 N 0.85029(14) 0.05754(14) 0.12985(16) 0.0227 Uani
N2 N 0.93511(14) 0.02920(14) 0.17523(15) 0.0219 Uani
N3 N 0.93781(14) 0.03404(14) 0.08151(15) 0.0213 Uani
O4 O 0.90881(14) -0.06160(16) 0.33799(15) 0.0443 Uani
H8 H 0.8681 -0.1043 0.3416 0.0530 Uiso
H9 H 0.9265 -0.0485 0.3913 0.0530 Uiso
P1A P 0.94033(5) -0.50363(7) 0.12304(5) 0.0263 Uani
C1A C 0.93584(18) -0.28083(25) 0.1307(2) 0.0245 Uani
C2A C 0.89266(19) -0.33399(27) 0.0663(2) 0.0296 Uani
H1A H 0.8639 -0.3243 0.0251 0.0360 Uiso
C3A C 0.93437(18) -0.41773(25) 0.1254(2) 0.0271 Uani
C4A C 0.89252(19) -0.40201(26) 0.0637(2) 0.0292 Uani
H2A H 0.8639 -0.4379 0.0198 0.0350 Uiso
C5A C 0.9762(2) -0.2955(3) 0.1941(2) 0.0397 Uani
H3A H 1.0045 -0.2596 0.2381 0.0480 Uiso
C6A C 0.9741(2) -0.3642(3) 0.1917(2) 0.0423 Uani
H4A H 1.0000 -0.3750 0.2359 0.0510 Uiso
O1A O 0.90462(13) -0.54553(18) 0.03583(15) 0.0308 Uani
O2A O 0.91085(17) -0.54490(23) 0.20902(16) 0.0461 Uani
O3A O 1.02861(14) -0.47294(20) 0.11871(16) 0.0421 Uani
H5A H 1.0418 -0.4700 0.0656 0.0630 Uiso
C7A C 0.95697(17) -0.16083(24) 0.20180(19) 0.0237 Uani
H6A H 0.9570 -0.1747 0.2619 0.0280 Uiso
C8A C 0.94846(17) -0.16469(24) 0.05641(19) 0.0230 Uani
H7A H 0.9412 -0.1817 -0.0032 0.0280 Uiso
N1A N 0.94246(14) -0.20725(20) 0.12985(16) 0.0227 Uani
N2A N 0.97080(14) -0.09409(20) 0.17523(15) 0.0219 Uani
N3A N 0.96596(14) -0.09623(20) 0.08151(15) 0.0213 Uani
O4A O 1.06160(16) -0.02959(21) 0.33799(15) 0.0443 Uani
H8A H 1.1043 -0.0276 0.3416 0.0530 Uiso
H9A H 1.0485 -0.0250 0.3913 0.0530 Uiso
P1B P 1.50363(7) 0.44396(5) 0.12304(5) 0.0263 Uani
C1B C 1.28083(25) 0.21667(18) 0.1307(2) 0.0245 Uani
C2B C 1.33399(27) 0.22665(19) 0.0663(2) 0.0296 Uani
H1B H 1.3243 0.1882 0.0251 0.0360 Uiso
C3B C 1.41773(25) 0.35210(18) 0.1254(2) 0.0271 Uani
C4B C 1.40201(26) 0.29453(18) 0.0637(2) 0.0292 Uani
H2B H 1.4379 0.3018 0.0198 0.0350 Uiso
C5B C 1.2955(3) 0.2717(2) 0.1941(2) 0.0397 Uani
H3B H 1.2596 0.2641 0.2381 0.0480 Uiso
C6B C 1.3642(3) 0.3383(2) 0.1917(2) 0.0423 Uani
H4B H 1.3750 0.3750 0.2359 0.0510 Uiso
O1B O 1.54553(18) 0.45015(13) 0.03583(15) 0.0308 Uani
O2B O 1.54490(23) 0.45575(15) 0.20902(16) 0.0461 Uani
O3B O 1.47294(20) 0.50155(14) 0.11871(16) 0.0421 Uani
H5B H 1.4700 0.5118 0.0656 0.0630 Uiso
C7B C 1.16083(24) 0.11780(17) 0.20180(19) 0.0237 Uani
H6B H 1.1747 0.1317 0.2619 0.0280 Uiso
C8B C 1.16469(24) 0.11315(17) 0.05641(19) 0.0230 Uani
H7B H 1.1817 0.1229 -0.0032 0.0280 Uiso
N1B N 1.20725(20) 0.14971(14) 0.12985(16) 0.0227 Uani
N2B N 1.09409(20) 0.06489(14) 0.17523(15) 0.0219 Uani
N3B N 1.09623(20) 0.06219(14) 0.08151(15) 0.0213 Uani
O4B O 1.02959(21) 0.09119(14) 0.33799(15) 0.0443 Uani
H8B H 1.0276 0.1319 0.3416 0.0530 Uiso
H9B H 1.0250 0.0735 0.3913 0.0530 Uiso
Ni2I Ni 1.0000 0.0000 -0.25426(4) 0.0184 Uani
P1I P 1.44396(5) -0.05967(5) -0.12304(5) 0.0263 Uani
C1I C 1.21667(18) -0.06416(18) -0.1307(2) 0.0245 Uani
C2I C 1.22665(19) -0.10734(19) -0.0663(2) 0.0296 Uani
H1I H 1.1882 -0.1361 -0.0251 0.0360 Uiso
C3I C 1.35210(18) -0.06563(18) -0.1254(2) 0.0271 Uani
C4I C 1.29453(18) -0.10748(19) -0.0637(2) 0.0292 Uani
H2I H 1.3018 -0.1361 -0.0198 0.0350 Uiso
C5I C 1.2717(2) -0.0238(2) -0.1941(2) 0.0397 Uani
H3I H 1.2641 0.0045 -0.2381 0.0480 Uiso
C6I C 1.3383(2) -0.0259(2) -0.1917(2) 0.0423 Uani
H4I H 1.3750 0.0000 -0.2359 0.0510 Uiso
O1I O 1.45015(13) -0.09538(13) -0.03583(15) 0.0308 Uani
O2I O 1.45575(15) -0.08915(17) -0.20902(16) 0.0461 Uani
O3I O 1.50155(14) 0.02861(14) -0.11871(16) 0.0421 Uani
H5I H 1.5118 0.0418 -0.0656 0.0630 Uiso
C7I C 1.11780(17) -0.04303(17) -0.20180(19) 0.0237 Uani
H6I H 1.1317 -0.0430 -0.2619 0.0280 Uiso
C8I C 1.11315(17) -0.05154(17) -0.05641(19) 0.0230 Uani
H7I H 1.1229 -0.0588 0.0032 0.0280 Uiso
N1I N 1.14971(14) -0.05754(14) -0.12985(16) 0.0227 Uani
N2I N 1.06489(14) -0.02920(14) -0.17523(15) 0.0219 Uani
N3I N 1.06219(14) -0.03404(14) -0.08151(15) 0.0213 Uani
O4I O 1.09119(14) 0.06160(16) -0.33799(15) 0.0443 Uani
H8I H 1.1319 0.1043 -0.3416 0.0530 Uiso
H9I H 1.0735 0.0485 -0.3913 0.0530 Uiso
P1J P 1.05967(5) 0.50363(7) -0.12304(5) 0.0263 Uani
C1J C 1.06416(18) 0.28083(25) -0.1307(2) 0.0245 Uani
C2J C 1.10734(19) 0.33399(27) -0.0663(2) 0.0296 Uani
H1J H 1.1361 0.3243 -0.0251 0.0360 Uiso
C3J C 1.06563(18) 0.41773(25) -0.1254(2) 0.0271 Uani
C4J C 1.10748(19) 0.40201(26) -0.0637(2) 0.0292 Uani
H2J H 1.1361 0.4379 -0.0198 0.0350 Uiso
C5J C 1.0238(2) 0.2955(3) -0.1941(2) 0.0397 Uani
H3J H 0.9955 0.2596 -0.2381 0.0480 Uiso
C6J C 1.0259(2) 0.3642(3) -0.1917(2) 0.0423 Uani
H4J H 1.0000 0.3750 -0.2359 0.0510 Uiso
O1J O 1.09538(13) 0.54553(18) -0.03583(15) 0.0308 Uani
O2J O 1.08915(17) 0.54490(23) -0.20902(16) 0.0461 Uani
O3J O 0.97139(14) 0.47294(20) -0.11871(16) 0.0421 Uani
H5J H 0.9582 0.4700 -0.0656 0.0630 Uiso
C7J C 1.04303(17) 0.16083(24) -0.20180(19) 0.0237 Uani
H6J H 1.0430 0.1747 -0.2619 0.0280 Uiso
C8J C 1.05154(17) 0.16469(24) -0.05641(19) 0.0230 Uani
H7J H 1.0588 0.1817 0.0032 0.0280 Uiso
N1J N 1.05754(14) 0.20725(20) -0.12985(16) 0.0227 Uani
N2J N 1.02920(14) 0.09409(20) -0.17523(15) 0.0219 Uani
N3J N 1.03404(14) 0.09623(20) -0.08151(15) 0.0213 Uani
O4J O 0.93840(16) 0.02959(21) -0.33799(15) 0.0443 Uani
H8J H 0.8957 0.0276 -0.3416 0.0530 Uiso
H9J H 0.9515 0.0250 -0.3913 0.0530 Uiso
P1K P 0.49637(7) -0.44396(5) -0.12304(5) 0.0263 Uani
C1K C 0.71917(25) -0.21667(18) -0.1307(2) 0.0245 Uani
C2K C 0.66601(27) -0.22665(19) -0.0663(2) 0.0296 Uani
H1K H 0.6757 -0.1882 -0.0251 0.0360 Uiso
C3K C 0.58227(25) -0.35210(18) -0.1254(2) 0.0271 Uani
C4K C 0.59799(26) -0.29453(18) -0.0637(2) 0.0292 Uani
H2K H 0.5621 -0.3018 -0.0198 0.0350 Uiso
C5K C 0.7045(3) -0.2717(2) -0.1941(2) 0.0397 Uani
H3K H 0.7404 -0.2641 -0.2381 0.0480 Uiso
C6K C 0.6358(3) -0.3383(2) -0.1917(2) 0.0423 Uani
H4K H 0.6250 -0.3750 -0.2359 0.0510 Uiso
O1K O 0.45447(18) -0.45015(13) -0.03583(15) 0.0308 Uani
O2K O 0.45510(23) -0.45575(15) -0.20902(16) 0.0461 Uani
O3K O 0.52706(20) -0.50155(14) -0.11871(16) 0.0421 Uani
H5K H 0.5300 -0.5118 -0.0656 0.0630 Uiso
C7K C 0.83917(24) -0.11780(17) -0.20180(19) 0.0237 Uani
H6K H 0.8253 -0.1317 -0.2619 0.0280 Uiso
C8K C 0.83531(24) -0.11315(17) -0.05641(19) 0.0230 Uani
H7K H 0.8183 -0.1229 0.0032 0.0280 Uiso
N1K N 0.79275(20) -0.14971(14) -0.12985(16) 0.0227 Uani
N2K N 0.90591(20) -0.06489(14) -0.17523(15) 0.0219 Uani
N3K N 0.90377(20) -0.06219(14) -0.08151(15) 0.0213 Uani
O4K O 0.97041(21) -0.09119(14) -0.33799(15) 0.0443 Uani
H8K H 0.9724 -0.1319 -0.3416 0.0530 Uiso
H9K H 0.9750 -0.0735 -0.3913 0.0530 Uiso
O5 O 0.9507(2) 0.7688(2) 0.4130(2) 0.0822 Uani
H10 H 0.9630 0.8115 0.4367 0.0980 Uiso
H11 H 0.9222 0.7344 0.4504 0.0980 Uiso
O6 O 0.9111(4) 0.8746(4) 0.4931(4) 0.0657 Uani
loop_
_atom_site_aniso_label
_atom_site_aniso_U_11
_atom_site_aniso_U_22
_atom_site_aniso_U_33
_atom_site_aniso_U_23
_atom_site_aniso_U_13
_atom_site_aniso_U_12
Ni1 0.0174(3) 0.0174(3) 0.0142(4) 0.000 0.000 0.00869(14)
Ni2 0.0199(2) 0.0199(2) 0.0153(3) 0.000 0.000 0.00995(11)
P1 0.0237(4) 0.0311(5) 0.0257(4) -0.0052(3) -0.0030(3) 0.0149(4)
C1 0.0254(16) 0.0279(16) 0.0272(15) -0.0026(12) -0.0007(12) 0.0186(14)
C2 0.0289(17) 0.0316(17) 0.0301(16) 0.0067(13) 0.0069(13) 0.0165(14)
C3 0.0275(16) 0.0287(17) 0.0315(17) -0.0008(13) 0.0015(13) 0.0189(14)
C4 0.0314(17) 0.0302(17) 0.0316(16) 0.0040(13) -0.0005(13) 0.0196(15)
C5 0.041(2) 0.054(2) 0.0393(19) 0.0195(17) 0.0112(15) 0.0352(19)
C6 0.041(2) 0.056(2) 0.043(2) 0.0212(18) 0.0183(17) 0.034(2)
O1 0.0316(12) 0.0256(12) 0.0351(12) -0.0029(9) -0.0062(10) 0.0142(10)
O2 0.0449(15) 0.077(2) 0.0341(13) -0.0211(13) -0.0108(11) 0.0438(15)
O3 0.0442(15) 0.0326(13) 0.0317(12) 0.0054(10) -0.0052(11) 0.0059(11)
C7 0.0275(16) 0.0291(16) 0.0199(14) 0.0000(12) 0.0020(12) 0.0183(14)
C8 0.0255(15) 0.0282(16) 0.0182(14) 0.0015(11) 0.0003(11) 0.0156(13)
N1 0.0242(13) 0.0280(14) 0.0211(12) -0.0001(10) 0.0008(10) 0.0169(11)
N2 0.0256(13) 0.0252(13) 0.0166(11) -0.0004(10) -0.0002(9) 0.0139(11)
N3 0.0244(13) 0.0255(13) 0.0159(11) 0.0006(9) 0.0013(9) 0.0140(11)
O4 0.0277(13) 0.0611(17) 0.0237(12) 0.0066(11) 0.0032(9) 0.0069(12)
P1A 0.0311 0.025 0.0257 0.0022 0.0052 0.0162
C1A 0.0279 0.0161 0.0272 0.0019 0.0026 0.0093
C2A 0.0316 0.0275 0.0301 0.0002 -0.0067 0.0151
C3A 0.0287 0.0184 0.0315 0.0023 0.0008 0.0098
C4A 0.0302 0.0224 0.0316 -0.0045 -0.004 0.0106
C5A 0.054 0.0246 0.0393 -0.0083 -0.0195 0.0188
C6A 0.056 0.029 0.043 -0.0029 -0.0212 0.022
O1A 0.0256 0.0288 0.0351 -0.0033 0.0029 0.0114
O2A 0.077 0.0343 0.0341 0.0103 0.0211 0.0332
O3A 0.0326 0.065 0.0317 -0.0106 -0.0054 0.0267
C7A 0.0291 0.02 0.0199 0.002 0 0.0108
C8A 0.0282 0.0225 0.0182 -0.0012 -0.0015 0.0126
N1A 0.028 0.0184 0.0211 0.0009 0.0001 0.0111
N2A 0.0252 0.023 0.0166 0.0002 0.0004 0.0113
N3A 0.0255 0.0219 0.0159 0.0007 -0.0006 0.0115
O4A 0.0611 0.075 0.0237 -0.0034 -0.0066 0.0542
P1B 0.025 0.0237 0.0257 0.003 -0.0022 0.0088
C1B 0.0161 0.0254 0.0272 0.0007 -0.0019 0.0068
C2B 0.0275 0.0289 0.0301 -0.0069 -0.0002 0.0124
C3B 0.0184 0.0275 0.0315 -0.0015 -0.0023 0.0086
C4B 0.0224 0.0314 0.0316 0.0005 0.0045 0.0118
C5B 0.0246 0.041 0.0393 -0.0112 0.0083 0.0058
C6B 0.029 0.041 0.043 -0.0183 0.0029 0.007
O1B 0.0288 0.0316 0.0351 0.0062 0.0033 0.0174
O2B 0.0343 0.0449 0.0341 0.0108 -0.0103 0.0011
O3B 0.065 0.0442 0.0317 0.0052 0.0106 0.0383
C7B 0.02 0.0275 0.0199 -0.002 -0.002 0.0092
C8B 0.0225 0.0255 0.0182 -0.0003 0.0012 0.0099
N1B 0.0184 0.0242 0.0211 -0.0008 -0.0009 0.0073
N2B 0.023 0.0256 0.0166 0.0002 -0.0002 0.0117
N3B 0.0219 0.0244 0.0159 -0.0013 -0.0007 0.0104
O4B 0.075 0.0277 0.0237 -0.0032 0.0034 0.0208
Ni2I 0.0199 0.0199 0.0153 0 0 0.00995
P1I 0.0237 0.0311 0.0257 -0.0052 -0.003 0.0149
C1I 0.0254 0.0279 0.0272 -0.0026 -0.0007 0.0186
C2I 0.0289 0.0316 0.0301 0.0067 0.0069 0.0165
C3I 0.0275 0.0287 0.0315 -0.0008 0.0015 0.0189
C4I 0.0314 0.0302 0.0316 0.004 -0.0005 0.0196
C5I 0.041 0.054 0.0393 0.0195 0.0112 0.0352
C6I 0.041 0.056 0.043 0.0212 0.0183 0.034
O1I 0.0316 0.0256 0.0351 -0.0029 -0.0062 0.0142
O2I 0.0449 0.077 0.0341 -0.0211 -0.0108 0.0438
O3I 0.0442 0.0326 0.0317 0.0054 -0.0052 0.0059
C7I 0.0275 0.0291 0.0199 0 0.002 0.0183
C8I 0.0255 0.0282 0.0182 0.0015 0.0003 0.0156
N1I 0.0242 0.028 0.0211 -0.0001 0.0008 0.0169
N2I 0.0256 0.0252 0.0166 -0.0004 -0.0002 0.0139
N3I 0.0244 0.0255 0.0159 0.0006 0.0013 0.014
O4I 0.0277 0.0611 0.0237 0.0066 0.0032 0.0069
P1J 0.0311 0.025 0.0257 0.0022 0.0052 0.0162
C1J 0.0279 0.0161 0.0272 0.0019 0.0026 0.0093
C2J 0.0316 0.0275 0.0301 0.0002 -0.0067 0.0151
C3J 0.0287 0.0184 0.0315 0.0023 0.0008 0.0098
C4J 0.0302 0.0224 0.0316 -0.0045 -0.004 0.0106
C5J 0.054 0.0246 0.0393 -0.0083 -0.0195 0.0188
C6J 0.056 0.029 0.043 -0.0029 -0.0212 0.022
O1J 0.0256 0.0288 0.0351 -0.0033 0.0029 0.0114
O2J 0.077 0.0343 0.0341 0.0103 0.0211 0.0332
O3J 0.0326 0.065 0.0317 -0.0106 -0.0054 0.0267
C7J 0.0291 0.02 0.0199 0.002 0 0.0108
C8J 0.0282 0.0225 0.0182 -0.0012 -0.0015 0.0126
N1J 0.028 0.0184 0.0211 0.0009 0.0001 0.0111
N2J 0.0252 0.023 0.0166 0.0002 0.0004 0.0113
N3J 0.0255 0.0219 0.0159 0.0007 -0.0006 0.0115
O4J 0.0611 0.075 0.0237 -0.0034 -0.0066 0.0542
P1K 0.025 0.0237 0.0257 0.003 -0.0022 0.0088
C1K 0.0161 0.0254 0.0272 0.0007 -0.0019 0.0068
C2K 0.0275 0.0289 0.0301 -0.0069 -0.0002 0.0124
C3K 0.0184 0.0275 0.0315 -0.0015 -0.0023 0.0086
C4K 0.0224 0.0314 0.0316 0.0005 0.0045 0.0118
C5K 0.0246 0.041 0.0393 -0.0112 0.0083 0.0058
C6K 0.029 0.041 0.043 -0.0183 0.0029 0.007
O1K 0.0288 0.0316 0.0351 0.0062 0.0033 0.0174
O2K 0.0343 0.0449 0.0341 0.0108 -0.0103 0.0011
O3K 0.065 0.0442 0.0317 0.0052 0.0106 0.0383
C7K 0.02 0.0275 0.0199 -0.002 -0.002 0.0092
C8K 0.0225 0.0255 0.0182 -0.0003 0.0012 0.0099
N1K 0.0184 0.0242 0.0211 -0.0008 -0.0009 0.0073
N2K 0.023 0.0256 0.0166 0.0002 -0.0002 0.0117
N3K 0.0219 0.0244 0.0159 -0.0013 -0.0007 0.0104
O4K 0.075 0.0277 0.0237 -0.0032 0.0034 0.0208
O5 0.086(3) 0.088(3) 0.068(2) 0.0286(19) 0.0240(19) 0.040(2)
O6 0.080(5) 0.080(5) 0.033(3) 0.010(3) -0.006(3) 0.037(4)
loop_
_geom_bond_atom_site_label_1
_geom_bond_atom_site_label_2
_geom_bond_site_symmetry_1
_geom_bond_site_symmetry_2
Ni1 N3 1_555 1_555
Ni2 N2 1_555 1_555
P1 C3 1_555 1_555
C1 C2 1_555 1_555
C2 H1 1_555 1_555
C3 C4 1_555 1_555
C4 C2 1_555 1_555
H2 C4 1_555 1_555
C5 C1 1_555 1_555
H3 C5 1_555 1_555
C6 C3 1_555 1_555
H4 C6 1_555 1_555
O1 P1 1_555 1_555
O2 P1 1_555 1_555
O3 P1 1_555 1_555
H5 O3 1_555 1_555
C7 H6 1_555 1_555
C8 H7 1_555 1_555
N1 C1 1_555 1_555
N2 C7 1_555 1_555
N3 C8 1_555 1_555
O4 Ni2 1_555 1_555
H8 O4 1_555 1_555
H9 O4 1_555 1_555
O5 H10 1_555 1_555
H11 O5 1_555 1_555
P1A C3A 1_555 1_555
C1A C2A 1_555 1_555
C2A H1A 1_555 1_555
C3A C4A 1_555 1_555
C4A C2A 1_555 1_555
H2A C4A 1_555 1_555
C5A C1A 1_555 1_555
H3A C5A 1_555 1_555
C6A C3A 1_555 1_555
H4A C6A 1_555 1_555
O1A P1A 1_555 1_555
O2A P1A 1_555 1_555
O3A P1A 1_555 1_555
H5A O3A 1_555 1_555
C7A H6A 1_555 1_555
C8A H7A 1_555 1_555
N1A C1A 1_555 1_555
N2A Ni2 1_555 1_555
N3A Ni1 1_555 1_555
O4A Ni2 1_555 1_555
H8A O4A 1_555 1_555
H9A O4A 1_555 1_555
P1B C3B 1_555 1_555
C1B C2B 1_555 1_555
C2B H1B 1_555 1_555
C3B C4B 1_555 1_555
C4B C2B 1_555 1_555
H2B C4B 1_555 1_555
C5B C1B 1_555 1_555
H3B C5B 1_555 1_555
C6B C3B 1_555 1_555
H4B C6B 1_555 1_555
O1B P1B 1_555 1_555
O2B P1B 1_555 1_555
O3B P1B 1_555 1_555
H5B O3B 1_555 1_555
C7B H6B 1_555 1_555
C8B H7B 1_555 1_555
N1B C1B 1_555 1_555
N2B Ni2 1_555 1_555
N3B Ni1 1_555 1_555
O4B Ni2 1_555 1_555
H8B O4B 1_555 1_555
H9B O4B 1_555 1_555
Ni2I N2I 1_555 1_555
P1I C3I 1_555 1_555
C1I C2I 1_555 1_555
C2I H1I 1_555 1_555
C3I C4I 1_555 1_555
C4I C2I 1_555 1_555
H2I C4I 1_555 1_555
C5I C1I 1_555 1_555
H3I C5I 1_555 1_555
C6I C3I 1_555 1_555
H4I C6I 1_555 1_555
O1I P1I 1_555 1_555
O2I P1I 1_555 1_555
O3I P1I 1_555 1_555
H5I O3I 1_555 1_555
C7I H6I 1_555 1_555
C8I H7I 1_555 1_555
N1I C1I 1_555 1_555
N2I C7I 1_555 1_555
N3I Ni1 1_555 1_555
O4I Ni2I 1_555 1_555
H8I O4I 1_555 1_555
H9I O4I 1_555 1_555
P1J C3J 1_555 1_555
C1J C2J 1_555 1_555
C2J H1J 1_555 1_555
C3J C4J 1_555 1_555
C4J C2J 1_555 1_555
H2J C4J 1_555 1_555
C5J C1J 1_555 1_555
H3J C5J 1_555 1_555
C6J C3J 1_555 1_555
H4J C6J 1_555 1_555
O1J P1J 1_555 1_555
O2J P1J 1_555 1_555
O3J P1J 1_555 1_555
H5J O3J 1_555 1_555
C7J H6J 1_555 1_555
C8J H7J 1_555 1_555
N1J C1J 1_555 1_555
N2J Ni2I 1_555 1_555
N3J Ni1 1_555 1_555
O4J Ni2I 1_555 1_555
H8J O4J 1_555 1_555
H9J O4J 1_555 1_555
P1K C3K 1_555 1_555
C1K C2K 1_555 1_555
C2K H1K 1_555 1_555
C3K C4K 1_555 1_555
C4K C2K 1_555 1_555
H2K C4K 1_555 1_555
C5K C1K 1_555 1_555
H3K C5K 1_555 1_555
C6K C3K 1_555 1_555
H4K C6K 1_555 1_555
O1K P1K 1_555 1_555
O2K P1K 1_555 1_555
O3K P1K 1_555 1_555
H5K O3K 1_555 1_555
C7K H6K 1_555 1_555
C8K H7K 1_555 1_555
N1K C1K 1_555 1_555
N2K Ni2I 1_555 1_555
N3K Ni1 1_555 1_555
O4K Ni2I 1_555 1_555
H8K O4K 1_555 1_555
H9K O4K 1_555 1_555
C5 C6 1_555 1_555
C7 N1 1_555 1_555
C8 N1 1_555 1_555
N2 N3 1_555 1_555
C5A C6A 1_555 1_555
C7A N1A 1_555 1_555
C7A N2A 1_555 1_555
C8A N1A 1_555 1_555
C8A N3A 1_555 1_555
N2A N3A 1_555 1_555
C5B C6B 1_555 1_555
C7B N1B 1_555 1_555
C7B N2B 1_555 1_555
C8B N1B 1_555 1_555
C8B N3B 1_555 1_555
N2B N3B 1_555 1_555
C5I C6I 1_555 1_555
C7I N1I 1_555 1_555
C8I N1I 1_555 1_555
C8I N3I 1_555 1_555
N2I N3I 1_555 1_555
C5J C6J 1_555 1_555
C7J N1J 1_555 1_555
C7J N2J 1_555 1_555
C8J N1J 1_555 1_555
C8J N3J 1_555 1_555
N2J N3J 1_555 1_555
C5K C6K 1_555 1_555
C7K N1K 1_555 1_555
C7K N2K 1_555 1_555
C8K N1K 1_555 1_555
C8K N3K 1_555 1_555
N2K N3K 1_555 1_555

#END
