
#######################################################################
#
#                 Cambridge Crystallographic Data Centre
#                                CCDC 
#
#######################################################################
#
# If this CIF has been generated from an entry in the Cambridge 
# Structural Database, then it will include bibliographic, chemical, 
# crystal, experimental, refinement or atomic coordinate data resulting 
# from the CCDC's data processing and validation procedures.
#
#######################################################################

data_YEYCOW
_chemical_name_common            PCN-56
_chemical_formula_moiety         '(C66 H50 O16 Zr3)n'
_chemical_name_systematic        
catena-[tris(\m~4~-2',5'-dimethyl-1,1':4',1''-terphenyl-4,4''-dicarboxylato)-bis(\m~2~-hydroxo)-bis(\m~2~-oxo)-tri-zirconium
_symmetry_cell_setting           cubic
_symmetry_space_group_name_H-M   'F m -3 m'
_symmetry_Int_Tables_number      225
_space_group_name_Hall           '-F 4 2 3'
loop_
_symmetry_equiv_pos_site_id
_symmetry_equiv_pos_as_xyz
1 x,y,z
2 -y,x,z
3 -x,-y,z
4 y,-x,z
5 x,-z,y
6 x,-y,-z
7 x,z,-y
8 z,y,-x
9 -x,y,-z
10 -z,y,x
11 z,x,y
12 y,z,x
13 -y,-z,x
14 z,-x,-y
15 -y,z,-x
16 -z,-x,y
17 -z,x,-y
18 y,-z,-x
19 y,x,-z
20 -y,-x,-z
21 -x,z,y
22 -x,-z,-y
23 z,-y,x
24 -z,-y,-x
25 x,1/2+y,1/2+z
26 -y,1/2+x,1/2+z
27 -x,1/2-y,1/2+z
28 y,1/2-x,1/2+z
29 x,1/2-z,1/2+y
30 x,1/2-y,1/2-z
31 x,1/2+z,1/2-y
32 z,1/2+y,1/2-x
33 -x,1/2+y,1/2-z
34 -z,1/2+y,1/2+x
35 z,1/2+x,1/2+y
36 y,1/2+z,1/2+x
37 -y,1/2-z,1/2+x
38 z,1/2-x,1/2-y
39 -y,1/2+z,1/2-x
40 -z,1/2-x,1/2+y
41 -z,1/2+x,1/2-y
42 y,1/2-z,1/2-x
43 y,1/2+x,1/2-z
44 -y,1/2-x,1/2-z
45 -x,1/2+z,1/2+y
46 -x,1/2-z,1/2-y
47 z,1/2-y,1/2+x
48 -z,1/2-y,1/2-x
49 1/2+x,y,1/2+z
50 1/2-y,x,1/2+z
51 1/2-x,-y,1/2+z
52 1/2+y,-x,1/2+z
53 1/2+x,-z,1/2+y
54 1/2+x,-y,1/2-z
55 1/2+x,z,1/2-y
56 1/2+z,y,1/2-x
57 1/2-x,y,1/2-z
58 1/2-z,y,1/2+x
59 1/2+z,x,1/2+y
60 1/2+y,z,1/2+x
61 1/2-y,-z,1/2+x
62 1/2+z,-x,1/2-y
63 1/2-y,z,1/2-x
64 1/2-z,-x,1/2+y
65 1/2-z,x,1/2-y
66 1/2+y,-z,1/2-x
67 1/2+y,x,1/2-z
68 1/2-y,-x,1/2-z
69 1/2-x,z,1/2+y
70 1/2-x,-z,1/2-y
71 1/2+z,-y,1/2+x
72 1/2-z,-y,1/2-x
73 1/2+x,1/2+y,z
74 1/2-y,1/2+x,z
75 1/2-x,1/2-y,z
76 1/2+y,1/2-x,z
77 1/2+x,1/2-z,y
78 1/2+x,1/2-y,-z
79 1/2+x,1/2+z,-y
80 1/2+z,1/2+y,-x
81 1/2-x,1/2+y,-z
82 1/2-z,1/2+y,x
83 1/2+z,1/2+x,y
84 1/2+y,1/2+z,x
85 1/2-y,1/2-z,x
86 1/2+z,1/2-x,-y
87 1/2-y,1/2+z,-x
88 1/2-z,1/2-x,y
89 1/2-z,1/2+x,-y
90 1/2+y,1/2-z,-x
91 1/2+y,1/2+x,-z
92 1/2-y,1/2-x,-z
93 1/2-x,1/2+z,y
94 1/2-x,1/2-z,-y
95 1/2+z,1/2-y,x
96 1/2-z,1/2-y,-x
97 -x,-y,-z
98 y,-x,-z
99 x,y,-z
100 -y,x,-z
101 -x,z,-y
102 -x,y,z
103 -x,-z,y
104 -z,-y,x
105 x,-y,z
106 z,-y,-x
107 -z,-x,-y
108 -y,-z,-x
109 y,z,-x
110 -z,x,y
111 y,-z,x
112 z,x,-y
113 z,-x,y
114 -y,z,x
115 -y,-x,z
116 y,x,z
117 x,-z,-y
118 x,z,y
119 -z,y,-x
120 z,y,x
121 -x,1/2-y,1/2-z
122 y,1/2-x,1/2-z
123 x,1/2+y,1/2-z
124 -y,1/2+x,1/2-z
125 -x,1/2+z,1/2-y
126 -x,1/2+y,1/2+z
127 -x,1/2-z,1/2+y
128 -z,1/2-y,1/2+x
129 x,1/2-y,1/2+z
130 z,1/2-y,1/2-x
131 -z,1/2-x,1/2-y
132 -y,1/2-z,1/2-x
133 y,1/2+z,1/2-x
134 -z,1/2+x,1/2+y
135 y,1/2-z,1/2+x
136 z,1/2+x,1/2-y
137 z,1/2-x,1/2+y
138 -y,1/2+z,1/2+x
139 -y,1/2-x,1/2+z
140 y,1/2+x,1/2+z
141 x,1/2-z,1/2-y
142 x,1/2+z,1/2+y
143 -z,1/2+y,1/2-x
144 z,1/2+y,1/2+x
145 1/2-x,-y,1/2-z
146 1/2+y,-x,1/2-z
147 1/2+x,y,1/2-z
148 1/2-y,x,1/2-z
149 1/2-x,z,1/2-y
150 1/2-x,y,1/2+z
151 1/2-x,-z,1/2+y
152 1/2-z,-y,1/2+x
153 1/2+x,-y,1/2+z
154 1/2+z,-y,1/2-x
155 1/2-z,-x,1/2-y
156 1/2-y,-z,1/2-x
157 1/2+y,z,1/2-x
158 1/2-z,x,1/2+y
159 1/2+y,-z,1/2+x
160 1/2+z,x,1/2-y
161 1/2+z,-x,1/2+y
162 1/2-y,z,1/2+x
163 1/2-y,-x,1/2+z
164 1/2+y,x,1/2+z
165 1/2+x,-z,1/2-y
166 1/2+x,z,1/2+y
167 1/2-z,y,1/2-x
168 1/2+z,y,1/2+x
169 1/2-x,1/2-y,-z
170 1/2+y,1/2-x,-z
171 1/2+x,1/2+y,-z
172 1/2-y,1/2+x,-z
173 1/2-x,1/2+z,-y
174 1/2-x,1/2+y,z
175 1/2-x,1/2-z,y
176 1/2-z,1/2-y,x
177 1/2+x,1/2-y,z
178 1/2+z,1/2-y,-x
179 1/2-z,1/2-x,-y
180 1/2-y,1/2-z,-x
181 1/2+y,1/2+z,-x
182 1/2-z,1/2+x,y
183 1/2+y,1/2-z,x
184 1/2+z,1/2+x,-y
185 1/2+z,1/2-x,y
186 1/2-y,1/2+z,x
187 1/2-y,1/2-x,z
188 1/2+y,1/2+x,z
189 1/2+x,1/2-z,-y
190 1/2+x,1/2+z,y
191 1/2-z,1/2+y,-x
192 1/2+z,1/2+y,x
_cell_length_a                   32.6003(11)
_cell_length_b                   32.6003(11)
_cell_length_c                   32.6003(11)
_cell_angle_alpha                90
_cell_angle_beta                 90
_cell_angle_gamma                90
_cell_volume                     34646.9
_exptl_crystal_colour            colorless
_exptl_crystal_description       octahedron
_cell_formula_units_Z            8
loop_
_atom_site_label
_atom_site_type_symbol
_atom_site_fract_x
_atom_site_fract_y
_atom_site_fract_z
Zr1 Zr 0.0000 0.0000 0.075216(17)
O1 O 0.03666(9) -0.03666(9) 0.03666(9)
O2 O 0.05841(11) 0.0000 0.10851(10)
C1 C 0.09536(15) 0.0000 0.09536(15)
C2 C 0.12797(12) 0.0000 0.12797(12)
C3 C 0.11708(14) 0.0000 0.16803(12)
H1 H 0.0895 0.0000 0.1754
C4 C 0.14686(13) 0.0000 0.19772(15)
H2 H 0.1395 0.0000 0.2253
C5 C 0.18697(14) 0.0000 0.18697(14)
C6 C 0.22036(11) 0.0000 0.22036(11)
C7 C 0.23511(7) 0.03630(12) 0.23511(7)
C8 C 0.2038(7) 0.0711(7) 0.2408(10)
H3 H 0.2162 0.0968 0.2335
H4 H 0.1952 0.0720 0.2690
H5 H 0.1804 0.0662 0.2236
O2V O 0.10851(10) 0.0000 0.05841(11)
C3V C 0.16803(12) 0.0000 0.11708(14)
H1V H 0.1754 0.0000 0.0895
C4V C 0.19772(15) 0.0000 0.14686(13)
H2V H 0.2253 0.0000 0.1395
C7V C 0.23511(7) -0.03630(12) 0.23511(7)
C8V C 0.2408(10) -0.0711(7) 0.2038(7)
H3V H 0.2335 -0.0968 0.2162
H4V H 0.2690 -0.0720 0.1952
H5V H 0.2236 -0.0662 0.1804
O2DB O 0.44159(11) 0.0000 0.39149(10)
C1DB C 0.40464(15) 0.0000 0.40464(15)
C2DB C 0.37203(12) 0.0000 0.37203(12)
C3DB C 0.38292(14) 0.0000 0.33197(12)
H1DB H 0.4105 0.0000 0.3246
C4DB C 0.35314(13) 0.0000 0.30228(15)
H2DB H 0.3605 0.0000 0.2747
C5DB C 0.31303(14) 0.0000 0.31303(14)
C6DB C 0.27964(11) 0.0000 0.27964(11)
C7DB C 0.26489(7) 0.03630(12) 0.26489(7)
C8DB C 0.2962(7) 0.0711(7) 0.2592(10)
H3DB H 0.2838 0.0968 0.2665
H4DB H 0.3048 0.0720 0.2310
H5DB H 0.3196 0.0662 0.2764
O2SB O 0.39149(10) 0.0000 0.44159(11)
C3SB C 0.33197(12) 0.0000 0.38292(14)
H1SB H 0.3246 0.0000 0.4105
C4SB C 0.30228(15) 0.0000 0.35314(13)
H2SB H 0.2747 0.0000 0.3605
C7SB C 0.26489(7) -0.03630(12) 0.26489(7)
C8SB C 0.2592(10) -0.0711(7) 0.2962(7)
H3SB H 0.2665 -0.0968 0.2838
H4SB H 0.2310 -0.0720 0.3048
H5SB H 0.2764 -0.0662 0.3196
C8ZC C 0.2038(7) -0.0711(7) 0.2408(10)
H3ZC H 0.2162 -0.0968 0.2335
H4ZC H 0.1952 -0.0720 0.2690
H5ZC H 0.1804 -0.0662 0.2236
C8OD C 0.2408(10) 0.0711(7) 0.2038(7)
H3OD H 0.2335 0.0968 0.2162
H4OD H 0.2690 0.0720 0.1952
H5OD H 0.2236 0.0662 0.1804
C8NE C 0.2962(7) -0.0711(7) 0.2592(10)
H3NE H 0.2838 -0.0968 0.2665
H4NE H 0.3048 -0.0720 0.2310
H5NE H 0.3196 -0.0662 0.2764
C8JF C 0.2592(10) 0.0711(7) 0.2962(7)
H3JF H 0.2665 0.0968 0.2838
H4JF H 0.2310 0.0720 0.3048
H5JF H 0.2764 0.0662 0.3196
O1A O 0.03666(9) 0.03666(9) 0.03666(9)
O2A O 0.0000 0.05841(11) 0.10851(10)
C1A C 0.0000 0.09536(15) 0.09536(15)
C2A C 0.0000 0.12797(12) 0.12797(12)
C3A C 0.0000 0.11708(14) 0.16803(12)
H1A H 0.0000 0.0895 0.1754
C4A C 0.0000 0.14686(13) 0.19772(15)
H2A H 0.0000 0.1395 0.2253
C5A C 0.0000 0.18697(14) 0.18697(14)
C6A C 0.0000 0.22036(11) 0.22036(11)
C7A C -0.03630(12) 0.23511(7) 0.23511(7)
C8A C -0.0711(7) 0.2038(7) 0.2408(10)
H3A H -0.0968 0.2162 0.2335
H4A H -0.0720 0.1952 0.2690
H5A H -0.0662 0.1804 0.2236
O2K O 0.0000 0.10851(10) 0.05841(11)
C3K C 0.0000 0.16803(12) 0.11708(14)
H1K H 0.0000 0.1754 0.0895
C4K C 0.0000 0.19772(15) 0.14686(13)
H2K H 0.0000 0.2253 0.1395
C7K C 0.03630(12) 0.23511(7) 0.23511(7)
C8K C 0.0711(7) 0.2408(10) 0.2038(7)
H3K H 0.0968 0.2335 0.2162
H4K H 0.0720 0.2690 0.1952
H5K H 0.0662 0.2236 0.1804
O2QA O 0.0000 0.44159(11) 0.39149(10)
C1OA C 0.0000 0.40464(15) 0.40464(15)
C2OA C 0.0000 0.37203(12) 0.37203(12)
C3QA C 0.0000 0.38292(14) 0.33197(12)
H1QA H 0.0000 0.4105 0.3246
C4QA C 0.0000 0.35314(13) 0.30228(15)
H2QA H 0.0000 0.3605 0.2747
C5OA C 0.0000 0.31303(14) 0.31303(14)
C6OA C 0.0000 0.27964(11) 0.27964(11)
C7QA C -0.03630(12) 0.26489(7) 0.26489(7)
C8QA C -0.0711(7) 0.2962(7) 0.2592(10)
H3QA H -0.0968 0.2838 0.2665
H4QA H -0.0720 0.3048 0.2310
H5QA H -0.0662 0.3196 0.2764
O2OA O 0.0000 0.39149(10) 0.44159(11)
C3OA C 0.0000 0.33197(12) 0.38292(14)
H1OA H 0.0000 0.3246 0.4105
C4OA C 0.0000 0.30228(15) 0.35314(13)
H2OA H 0.0000 0.2747 0.3605
C7OA C 0.03630(12) 0.26489(7) 0.26489(7)
C8OA C 0.0711(7) 0.2592(10) 0.2962(7)
H3OA H 0.0968 0.2665 0.2838
H4OA H 0.0720 0.2310 0.3048
H5OA H 0.0662 0.2764 0.3196
C8KD C 0.0711(7) 0.2038(7) 0.2408(10)
H3KD H 0.0968 0.2162 0.2335
H4KD H 0.0720 0.1952 0.2690
H5KD H 0.0662 0.1804 0.2236
C8ID C -0.0711(7) 0.2408(10) 0.2038(7)
H3ID H -0.0968 0.2335 0.2162
H4ID H -0.0720 0.2690 0.1952
H5ID H -0.0662 0.2236 0.1804
C8QD C 0.0711(7) 0.2962(7) 0.2592(10)
H3QD H 0.0968 0.2838 0.2665
H4QD H 0.0720 0.3048 0.2310
H5QD H 0.0662 0.3196 0.2764
C8AE C -0.0711(7) 0.2592(10) 0.2962(7)
H3AE H -0.0968 0.2665 0.2838
H4AE H -0.0720 0.2310 0.3048
H5AE H -0.0662 0.2764 0.3196
O1B O -0.03666(9) 0.03666(9) 0.03666(9)
O2B O -0.05841(11) 0.0000 0.10851(10)
C1B C -0.09536(15) 0.0000 0.09536(15)
C2B C -0.12797(12) 0.0000 0.12797(12)
C3B C -0.11708(14) 0.0000 0.16803(12)
H1B H -0.0895 0.0000 0.1754
C4B C -0.14686(13) 0.0000 0.19772(15)
H2B H -0.1395 0.0000 0.2253
C5B C -0.18697(14) 0.0000 0.18697(14)
C6B C -0.22036(11) 0.0000 0.22036(11)
C7B C -0.23511(7) -0.03630(12) 0.23511(7)
C8B C -0.2038(7) -0.0711(7) 0.2408(10)
H3B H -0.2162 -0.0968 0.2335
H4B H -0.1952 -0.0720 0.2690
H5B H -0.1804 -0.0662 0.2236
O2I O -0.10851(10) 0.0000 0.05841(11)
C3I C -0.16803(12) 0.0000 0.11708(14)
H1I H -0.1754 0.0000 0.0895
C4I C -0.19772(15) 0.0000 0.14686(13)
H2I H -0.2253 0.0000 0.1395
C7I C -0.23511(7) 0.03630(12) 0.23511(7)
C8I C -0.2408(10) 0.0711(7) 0.2038(7)
H3I H -0.2335 0.0968 0.2162
H4I H -0.2690 0.0720 0.1952
H5I H -0.2236 0.0662 0.1804
O2AB O -0.44159(11) 0.0000 0.39149(10)
C1AB C -0.40464(15) 0.0000 0.40464(15)
C2AB C -0.37203(12) 0.0000 0.37203(12)
C3AB C -0.38292(14) 0.0000 0.33197(12)
H1AB H -0.4105 0.0000 0.3246
C4AB C -0.35314(13) 0.0000 0.30228(15)
H2AB H -0.3605 0.0000 0.2747
C5AB C -0.31303(14) 0.0000 0.31303(14)
C6AB C -0.27964(11) 0.0000 0.27964(11)
C7AB C -0.26489(7) -0.03630(12) 0.26489(7)
C8AB C -0.2962(7) -0.0711(7) 0.2592(10)
H3AB H -0.2838 -0.0968 0.2665
H4AB H -0.3048 -0.0720 0.2310
H5AB H -0.3196 -0.0662 0.2764
O2CB O -0.39149(10) 0.0000 0.44159(11)
C3CB C -0.33197(12) 0.0000 0.38292(14)
H1CB H -0.3246 0.0000 0.4105
C4CB C -0.30228(15) 0.0000 0.35314(13)
H2CB H -0.2747 0.0000 0.3605
C7CB C -0.26489(7) 0.03630(12) 0.26489(7)
C8CB C -0.2592(10) 0.0711(7) 0.2962(7)
H3CB H -0.2665 0.0968 0.2838
H4CB H -0.2310 0.0720 0.3048
H5CB H -0.2764 0.0662 0.3196
C8WC C -0.2038(7) 0.0711(7) 0.2408(10)
H3WC H -0.2162 0.0968 0.2335
H4WC H -0.1952 0.0720 0.2690
H5WC H -0.1804 0.0662 0.2236
C8YC C -0.2408(10) -0.0711(7) 0.2038(7)
H3YC H -0.2335 -0.0968 0.2162
H4YC H -0.2690 -0.0720 0.1952
H5YC H -0.2236 -0.0662 0.1804
C8PE C -0.2962(7) 0.0711(7) 0.2592(10)
H3PE H -0.2838 0.0968 0.2665
H4PE H -0.3048 0.0720 0.2310
H5PE H -0.3196 0.0662 0.2764
C8WE C -0.2592(10) -0.0711(7) 0.2962(7)
H3WE H -0.2665 -0.0968 0.2838
H4WE H -0.2310 -0.0720 0.3048
H5WE H -0.2764 -0.0662 0.3196
O1C O -0.03666(9) -0.03666(9) 0.03666(9)
Zr1D Zr 0.0000 -0.075216(17) 0.0000
Zr1G Zr 0.075216(17) 0.0000 0.0000
Zr1F Zr 0.0000 0.075216(17) 0.0000
Zr1I Zr -0.075216(17) 0.0000 0.0000
Zr1BA Zr 0.0000 0.424784(17) 0.5000
Zr1CA Zr 0.0000 0.5000 0.424784(17)
Zr1AB Zr -0.5000 0.0000 0.424784(17)
Zr1AB_2 Zr 0.5000 0.0000 0.424784(17)
Zr1CB Zr -0.424784(17) 0.0000 0.5000
Zr1EB Zr 0.424784(17) 0.0000 0.5000
O1D O 0.03666(9) -0.03666(9) -0.03666(9)
O1E O 0.03666(9) 0.03666(9) -0.03666(9)
O1H O -0.03666(9) -0.03666(9) -0.03666(9)
O2C O 0.0000 -0.05841(11) 0.10851(10)
O2D O 0.05841(11) -0.10851(10) 0.0000
O2G O 0.10851(10) 0.0000 -0.05841(11)
O2J O 0.10851(10) 0.05841(11) 0.0000
O2L O 0.0000 -0.10851(10) 0.05841(11)
O2M O 0.10851(10) -0.05841(11) 0.0000
O2Q O 0.0000 -0.10851(10) -0.05841(11)
O2U O -0.05841(11) -0.10851(10) 0.0000
loop_
_geom_bond_atom_site_label_1
_geom_bond_atom_site_label_2
_geom_bond_site_symmetry_1
_geom_bond_site_symmetry_2
Zr1 O1 1_555 1_555
O1 Zr1D 1_555 1_555
O2 Zr1 1_555 1_555
C1 O2 1_555 1_555
C2 C1 1_555 1_555
C3 C2 1_555 1_555
H1 C3 1_555 1_555
C4 C3 1_555 1_555
H2 C4 1_555 1_555
C5 C4 1_555 1_555
C6 C5 1_555 1_555
C7 C6 1_555 1_555
C8 C7 1_555 1_555
H3 C8 1_555 1_555
H4 C8 1_555 1_555
H5 C8 1_555 1_555
O2V C1 1_555 1_555
C3V C2 1_555 1_555
H1V C3V 1_555 1_555
C4V C5 1_555 1_555
H2V C4V 1_555 1_555
C7V C6 1_555 1_555
C8V C7V 1_555 1_555
H3V C8V 1_555 1_555
H4V C8V 1_555 1_555
H5V C8V 1_555 1_555
O2DB C1DB 1_555 1_555
C1DB C2DB 1_555 1_555
C2DB C3DB 1_555 1_555
C3DB H1DB 1_555 1_555
C4DB C3DB 1_555 1_555
H2DB C4DB 1_555 1_555
C5DB C4DB 1_555 1_555
C6DB C5DB 1_555 1_555
C7DB C7 1_555 1_555
C8DB C7DB 1_555 1_555
H3DB C8DB 1_555 1_555
H4DB C8DB 1_555 1_555
H5DB C8DB 1_555 1_555
O2SB C1DB 1_555 1_555
C3SB C2DB 1_555 1_555
H1SB C3SB 1_555 1_555
C4SB C5DB 1_555 1_555
H2SB C4SB 1_555 1_555
C7SB C7V 1_555 1_555
C8SB C7SB 1_555 1_555
H3SB C8SB 1_555 1_555
H4SB C8SB 1_555 1_555
H5SB C8SB 1_555 1_555
C8ZC C7V 1_555 1_555
H3ZC C8ZC 1_555 1_555
H4ZC C8ZC 1_555 1_555
H5ZC C8ZC 1_555 1_555
C8OD C7 1_555 1_555
H3OD C8OD 1_555 1_555
H4OD C8OD 1_555 1_555
H5OD C8OD 1_555 1_555
C8NE C7SB 1_555 1_555
H3NE C8NE 1_555 1_555
H4NE C8NE 1_555 1_555
H5NE C8NE 1_555 1_555
C8JF C7DB 1_555 1_555
H3JF C8JF 1_555 1_555
H4JF C8JF 1_555 1_555
H5JF C8JF 1_555 1_555
O1A Zr1 1_555 1_555
O2A Zr1 1_555 1_555
C1A O2A 1_555 1_555
C2A C1A 1_555 1_555
C3A C2A 1_555 1_555
H1A C3A 1_555 1_555
C4A C3A 1_555 1_555
H2A C4A 1_555 1_555
C5A C4A 1_555 1_555
C6A C5A 1_555 1_555
C7A C6A 1_555 1_555
C8A C7A 1_555 1_555
H3A C8A 1_555 1_555
H4A C8A 1_555 1_555
H5A C8A 1_555 1_555
O2K C1A 1_555 1_555
C3K C2A 1_555 1_555
H1K C3K 1_555 1_555
C4K C5A 1_555 1_555
H2K C4K 1_555 1_555
C7K C6A 1_555 1_555
C8K C7K 1_555 1_555
H3K C8K 1_555 1_555
H4K C8K 1_555 1_555
H5K C8K 1_555 1_555
O2QA C1OA 1_555 1_555
C1OA C2OA 1_555 1_555
C2OA C3QA 1_555 1_555
C3QA H1QA 1_555 1_555
C4QA C3QA 1_555 1_555
H2QA C4QA 1_555 1_555
C5OA C4QA 1_555 1_555
C6OA C5OA 1_555 1_555
C7QA C7A 1_555 1_555
C8QA C7QA 1_555 1_555
H3QA C8QA 1_555 1_555
H4QA C8QA 1_555 1_555
H5QA C8QA 1_555 1_555
O2OA C1OA 1_555 1_555
C3OA C2OA 1_555 1_555
H1OA C3OA 1_555 1_555
C4OA C5OA 1_555 1_555
H2OA C4OA 1_555 1_555
C7OA C7K 1_555 1_555
C8OA C7OA 1_555 1_555
H3OA C8OA 1_555 1_555
H4OA C8OA 1_555 1_555
H5OA C8OA 1_555 1_555
C8KD C7K 1_555 1_555
H3KD C8KD 1_555 1_555
H4KD C8KD 1_555 1_555
H5KD C8KD 1_555 1_555
C8ID C7A 1_555 1_555
H3ID C8ID 1_555 1_555
H4ID C8ID 1_555 1_555
H5ID C8ID 1_555 1_555
C8QD C7OA 1_555 1_555
H3QD C8QD 1_555 1_555
H4QD C8QD 1_555 1_555
H5QD C8QD 1_555 1_555
C8AE C7QA 1_555 1_555
H3AE C8AE 1_555 1_555
H4AE C8AE 1_555 1_555
H5AE C8AE 1_555 1_555
O1B Zr1 1_555 1_555
O2B Zr1 1_555 1_555
C1B O2B 1_555 1_555
C2B C1B 1_555 1_555
C3B C2B 1_555 1_555
H1B C3B 1_555 1_555
C4B C3B 1_555 1_555
H2B C4B 1_555 1_555
C5B C4B 1_555 1_555
C6B C5B 1_555 1_555
C7B C6B 1_555 1_555
C8B C7B 1_555 1_555
H3B C8B 1_555 1_555
H4B C8B 1_555 1_555
H5B C8B 1_555 1_555
O2I C1B 1_555 1_555
C3I C2B 1_555 1_555
H1I C3I 1_555 1_555
C4I C5B 1_555 1_555
H2I C4I 1_555 1_555
C7I C6B 1_555 1_555
C8I C7I 1_555 1_555
H3I C8I 1_555 1_555
H4I C8I 1_555 1_555
H5I C8I 1_555 1_555
O2AB C1AB 1_555 1_555
C1AB C2AB 1_555 1_555
C2AB C3AB 1_555 1_555
C3AB H1AB 1_555 1_555
C4AB C3AB 1_555 1_555
H2AB C4AB 1_555 1_555
C5AB C4AB 1_555 1_555
C6AB C5AB 1_555 1_555
C7AB C7B 1_555 1_555
C8AB C7AB 1_555 1_555
H3AB C8AB 1_555 1_555
H4AB C8AB 1_555 1_555
H5AB C8AB 1_555 1_555
O2CB C1AB 1_555 1_555
C3CB C2AB 1_555 1_555
H1CB C3CB 1_555 1_555
C4CB C5AB 1_555 1_555
H2CB C4CB 1_555 1_555
C7CB C7I 1_555 1_555
C8CB C7CB 1_555 1_555
H3CB C8CB 1_555 1_555
H4CB C8CB 1_555 1_555
H5CB C8CB 1_555 1_555
C8WC C7I 1_555 1_555
H3WC C8WC 1_555 1_555
H4WC C8WC 1_555 1_555
H5WC C8WC 1_555 1_555
C8YC C7B 1_555 1_555
H3YC C8YC 1_555 1_555
H4YC C8YC 1_555 1_555
H5YC C8YC 1_555 1_555
C8PE C7CB 1_555 1_555
H3PE C8PE 1_555 1_555
H4PE C8PE 1_555 1_555
H5PE C8PE 1_555 1_555
C8WE C7AB 1_555 1_555
H3WE C8WE 1_555 1_555
H4WE C8WE 1_555 1_555
H5WE C8WE 1_555 1_555
O1C Zr1 1_555 1_555
Zr1D O1C 1_555 1_555
Zr1G O1 1_555 1_555
Zr1F O1A 1_555 1_555
Zr1I O1B 1_555 1_555
Zr1BA O2OA 1_555 1_555
Zr1CA O2QA 1_555 1_555
Zr1AB O2AB 1_555 1_555
Zr1AB_2 O2DB 1_555 1_555
Zr1CB O2CB 1_555 1_555
Zr1EB O2SB 1_555 1_555
O1D Zr1D 1_555 1_555
O1E Zr1G 1_555 1_555
O1H Zr1D 1_555 1_555
O2C Zr1 1_555 1_555
O2D Zr1D 1_555 1_555
O2G Zr1G 1_555 1_555
O2J Zr1G 1_555 1_555
O2L Zr1D 1_555 1_555
O2M Zr1G 1_555 1_555
O2Q Zr1D 1_555 1_555
O2U Zr1D 1_555 1_555
C8 C8OD 1_555 1_555
O2V Zr1G 1_555 1_555
C3V C4V 1_555 1_555
C8V C8ZC 1_555 1_555
C6DB C7DB 1_555 1_555
C6DB C7SB 1_555 1_555
C8DB C8JF 1_555 1_555
C3SB C4SB 1_555 1_555
C8SB C8NE 1_555 1_555
O1A Zr1G 1_555 1_555
C8A C8ID 1_555 1_555
O2K Zr1F 1_555 1_555
C3K C4K 1_555 1_555
C8K C8KD 1_555 1_555
C6OA C7QA 1_555 1_555
C6OA C7OA 1_555 1_555
C8QA C8AE 1_555 1_555
C3OA C4OA 1_555 1_555
C8OA C8QD 1_555 1_555
O1B Zr1F 1_555 1_555
C8B C8YC 1_555 1_555
O2I Zr1I 1_555 1_555
C3I C4I 1_555 1_555
C8I C8WC 1_555 1_555
C6AB C7AB 1_555 1_555
C6AB C7CB 1_555 1_555
C8AB C8WE 1_555 1_555
C3CB C4CB 1_555 1_555
C8CB C8PE 1_555 1_555
O1C Zr1I 1_555 1_555
Zr1G O1D 1_555 1_555
Zr1F O1E 1_555 1_555
Zr1I O1H 1_555 1_555

#END
