
#######################################################################
#
#                 Cambridge Crystallographic Data Centre
#                                CCDC 
#
#######################################################################
#
# If this CIF has been generated from an entry in the Cambridge 
# Structural Database, then it will include bibliographic, chemical, 
# crystal, experimental, refinement or atomic coordinate data resulting 
# from the CCDC's data processing and validation procedures.
#
#######################################################################

data_YEMTIV
_chemical_formula_moiety         '(C24 H16 Cu1 F6 N4 Si1)n,2.5n(C1 H4 O1)'
_chemical_name_systematic        
"catena-(bis(\m~2~-4,4'-Ethyne-1,2-diyldipyridine)-(\m~2~-hexafluorosilicato)-copper(ii) methanol solvate)"
_symmetry_cell_setting           tetragonal
_symmetry_space_group_name_H-M   'I 4/m m m'
_symmetry_Int_Tables_number      139
_space_group_name_Hall           '-I 4 2'
loop_
_symmetry_equiv_pos_site_id
_symmetry_equiv_pos_as_xyz
1 x,y,z
2 x,-y,-z
3 -x,-y,z
4 -x,y,-z
5 y,x,-z
6 y,-x,z
7 -y,x,z
8 -y,-x,-z
9 1/2+x,1/2+y,1/2+z
10 1/2+x,1/2-y,1/2-z
11 1/2-x,1/2-y,1/2+z
12 1/2-x,1/2+y,1/2-z
13 1/2+y,1/2+x,1/2-z
14 1/2+y,1/2-x,1/2+z
15 1/2-y,1/2+x,1/2+z
16 1/2-y,1/2-x,1/2-z
17 -x,-y,-z
18 -x,y,z
19 x,y,-z
20 x,-y,z
21 -y,-x,z
22 -y,x,-z
23 y,-x,-z
24 y,x,z
25 1/2-x,1/2-y,1/2-z
26 1/2-x,1/2+y,1/2+z
27 1/2+x,1/2+y,1/2-z
28 1/2+x,1/2-y,1/2+z
29 1/2-y,1/2-x,1/2+z
30 1/2-y,1/2+x,1/2-z
31 1/2+y,1/2-x,1/2-z
32 1/2+y,1/2+x,1/2+z
_cell_length_a                   13.6490(11)
_cell_length_b                   13.6490(11)
_cell_length_c                   8.0920(6)
_cell_angle_alpha                90
_cell_angle_beta                 90
_cell_angle_gamma                90
_cell_volume                     1507.5
_exptl_crystal_colour            blue
_exptl_crystal_description       block
_cell_formula_units_Z            2
loop_
_atom_site_label
_atom_site_type_symbol
_atom_site_fract_x
_atom_site_fract_y
_atom_site_fract_z
C1 C 0.0000 0.3001(4) 0.3543(6)
H1 H 0.0000 0.3330 0.2508
C2 C 0.0000 0.1978(4) 0.3624(7)
H2 H 0.0000 0.1624 0.2613
Cu1 Cu 0.0000 0.0000 0.5000
Si1 Si 0.0000 0.0000 1.0000
N1 N 0.0000 0.1476(3) 0.5000
C4 C 0.0000 0.4569(5) 0.5000
C5 C 0.0000 0.3519(4) 0.5000
F1 F 0.0000 0.0000 0.7908(6)
F2 F 0.1198(14) 0.0278(16) 1.0000
C1C C 0.0000 0.3001(4) 0.6457(6)
C1A C 0.0000 0.6999(4) 0.6457(6)
C1B C 0.0000 0.6999(4) 0.3543(6)
C1A_2 C 0.0000 -0.3001(4) 0.6457(6)
C1B_2 C 0.0000 -0.3001(4) 0.3543(6)
C1_2 C 0.0000 -0.6999(4) 0.3543(6)
C1C_2 C 0.0000 -0.6999(4) 0.6457(6)
H1C H 0.0000 0.3330 0.7492
H1A H 0.0000 0.6670 0.7492
H1B H 0.0000 0.6670 0.2508
H1A_2 H 0.0000 -0.3330 0.7492
H1B_2 H 0.0000 -0.3330 0.2508
H1_2 H 0.0000 -0.6670 0.2508
H1C_2 H 0.0000 -0.6670 0.7492
C2C C 0.0000 0.1978(4) 0.6376(7)
C2A C 0.0000 0.8022(4) 0.6376(7)
C2B C 0.0000 0.8022(4) 0.3624(7)
C2A_2 C 0.0000 -0.1978(4) 0.6376(7)
C2B_2 C 0.0000 -0.1978(4) 0.3624(7)
C2_2 C 0.0000 -0.8022(4) 0.3624(7)
C2C_2 C 0.0000 -0.8022(4) 0.6376(7)
H2A H 0.0000 0.8376 0.7387
H2B H 0.0000 0.8376 0.2613
H2C H 0.0000 0.1624 0.7387
H2A_2 H 0.0000 -0.1624 0.7387
H2_2 H 0.0000 -0.8376 0.2613
H2C_2 H 0.0000 -0.8376 0.7387
H2B_2 H 0.0000 -0.1624 0.2613
Cu1_2 Cu 0.0000 1.0000 0.5000
Cu1_3 Cu 0.0000 0.0000 1.5000
Cu1_4 Cu 0.0000 -1.0000 0.5000
N1A N 0.0000 0.8524(3) 0.5000
N1A_2 N 0.0000 -0.1476(3) 0.5000
N1_2 N 0.0000 -0.8524(3) 0.5000
N1D N 0.1476(3) 0.0000 0.5000
N1F N -0.1476(3) 0.0000 0.5000
C4A C 0.0000 0.5431(5) 0.5000
C4A_2 C 0.0000 -0.4569(5) 0.5000
C4_2 C 0.0000 -0.5431(5) 0.5000
C5A C 0.0000 0.6481(4) 0.5000
C5A_2 C 0.0000 -0.3519(4) 0.5000
C5_2 C 0.0000 -0.6481(4) 0.5000
F1A F 0.0000 0.0000 1.2092(6)
F1A_2 F 0.0000 0.0000 0.2092(6)
F2A F 0.1198(14) -0.0278(16) 1.0000
F2B F -0.1198(14) -0.0278(16) 1.0000
F2C F -0.1198(14) 0.0278(16) 1.0000
F2D F 0.0278(16) 0.1198(14) 1.0000
F2F F -0.0278(16) 0.1198(14) 1.0000
F2E F 0.0278(16) -0.1198(14) 1.0000
F2G F -0.0278(16) -0.1198(14) 1.0000
C3? C 0.2322(10) 0.2322(10) 1.038(5)
H3? H 0.1878 0.2327 1.1329
H4? H 0.1997 0.2626 0.9427
H5? H 0.2917 0.2690 1.0648
O1? O 0.2563(10) 0.1382(11) 1.0000
H6? H 0.2049 0.1054 0.9853
F3? F -0.1033(9) -0.0668(14) 1.0000
loop_
_geom_bond_atom_site_label_1
_geom_bond_atom_site_label_2
_geom_bond_site_symmetry_1
_geom_bond_site_symmetry_2
C1 H1 1_555 1_555
C2 C1 1_555 1_555
H2 C2 1_555 1_555
Cu1 N1 1_555 1_555
Si1 F1 1_555 1_555
N1 C2 1_555 1_555
C4 C5 1_555 1_555
C5 C1 1_555 1_555
F1 Cu1 1_555 1_555
F2 Si1 1_555 1_555
C1C C5 1_555 1_555
C1A H1A 1_555 1_555
C1B H1B 1_555 1_555
C1A_2 H1A_2 1_555 1_555
C1B_2 H1B_2 1_555 1_555
C1_2 H1_2 1_555 1_555
C1C_2 H1C_2 1_555 1_555
H1C C1C 1_555 1_555
C2C N1 1_555 1_555
C2A C1A 1_555 1_555
C2B C1B 1_555 1_555
C2A_2 C1A_2 1_555 1_555
C2B_2 C1B_2 1_555 1_555
C2_2 C1_2 1_555 1_555
C2C_2 C1C_2 1_555 1_555
H2A C2A 1_555 1_555
H2B C2B 1_555 1_555
H2C C2C 1_555 1_555
H2A_2 C2A_2 1_555 1_555
H2_2 C2_2 1_555 1_555
H2C_2 C2C_2 1_555 1_555
H2B_2 C2B_2 1_555 1_555
Cu1_2 N1A 1_555 1_555
Cu1_3 F1A 1_555 1_555
Cu1_4 N1_2 1_555 1_555
N1A C2A 1_555 1_555
N1A_2 Cu1 1_555 1_555
N1_2 C2_2 1_555 1_555
N1D Cu1 1_555 1_555
N1F Cu1 1_555 1_555
C4A C4 1_555 1_555
C4A_2 C4_2 1_555 1_555
C4_2 C5_2 1_555 1_555
C5A C1A 1_555 1_555
C5A_2 C1A_2 1_555 1_555
C5_2 C1_2 1_555 1_555
F1A Si1 1_555 1_555
F1A_2 Cu1 1_555 1_555
F2A Si1 1_555 1_555
F2B Si1 1_555 1_555
F2C Si1 1_555 1_555
F2D Si1 1_555 1_555
F2F Si1 1_555 1_555
F2E Si1 1_555 1_555
F2G Si1 1_555 1_555
F2 F2A 1_555 1_555
C1C C2C 1_555 1_555
C1B C5A 1_555 1_555
C1B_2 C5A_2 1_555 1_555
C1C_2 C5_2 1_555 1_555
C2B N1A 1_555 1_555
C2A_2 N1A_2 1_555 1_555
C2B_2 N1A_2 1_555 1_555
C2C_2 N1_2 1_555 1_555
C4A C5A 1_555 1_555
C4A_2 C5A_2 1_555 1_555
F2B F2C 1_555 1_555
F2D F2F 1_555 1_555
F2E F2G 1_555 1_555

#END
