
#######################################################################
#
#                 Cambridge Crystallographic Data Centre
#                                CCDC 
#
#######################################################################
#
# If this CIF has been generated from an entry in the Cambridge 
# Structural Database, then it will include bibliographic, chemical, 
# crystal, experimental, refinement or atomic coordinate data resulting 
# from the CCDC's data processing and validation procedures.
#
#######################################################################

data_TABLAN
_chemical_name_common            CAU-6
_chemical_formula_moiety         
'(C24 H54 Al13 N3 O45 6+)n,6(Cl1 1-),6(C3 H8 O1)'
_chemical_name_systematic        
'catena-[tris(\m-2-aminobenzene-1,4-dicarboxylato)-heptacosakis(\m-hydroxo)-hexa-aqua-trideca-aluminium hexachloride isopropanol solvate]'
_symmetry_cell_setting           hexagonal
_symmetry_space_group_name_H-M   'P 63/m m c'
_symmetry_Int_Tables_number      194
_space_group_name_Hall           '-P 6c 2c'
loop_
_symmetry_equiv_pos_site_id
_symmetry_equiv_pos_as_xyz
1 x,y,z
2 -y,x-y,z
3 -x+y,-x,z
4 -x,-y,1/2+z
5 y,-x+y,1/2+z
6 x-y,x,1/2+z
7 y,x,-z
8 x-y,-y,-z
9 -x,-x+y,-z
10 -y,-x,1/2-z
11 -x+y,y,1/2-z
12 x,x-y,1/2-z
13 -x,-y,-z
14 y,-x+y,-z
15 x-y,x,-z
16 x,y,1/2-z
17 -y,x-y,1/2-z
18 -x+y,-x,1/2-z
19 -y,-x,z
20 -x+y,y,z
21 x,x-y,z
22 y,x,1/2+z
23 x-y,-y,1/2+z
24 -x,-x+y,1/2+z
_cell_length_a                   19.2275
_cell_length_b                   19.2275
_cell_length_c                   14.0741
_cell_angle_alpha                90
_cell_angle_beta                 90
_cell_angle_gamma                120
_cell_volume                     4506.06
_cell_formula_units_Z            2
loop_
_atom_site_label
_atom_site_type_symbol
_atom_site_fract_x
_atom_site_fract_y
_atom_site_fract_z
_atom_site_U_iso_or_equiv
_atom_site_thermal_displace_type
Al1 Al 0.15864 0.15864 0.00000 0.0253 Uiso
Al2 Al 0.30662 0.15331 0.12799 0.0253 Uiso
Al3 Al 0.00000 0.00000 0.00000 0.0253 Uiso
O1 O 0.09506 0.04753 0.05707 0.0253 Uiso
O2 O 0.35854 0.17927 0.00510 0.0253 Uiso
O3 O 0.09789 0.19578 0.06295 0.0253 Uiso
O4 O 0.24522 0.12261 0.25000 0.0253 Uiso
O5 O 0.24672 0.19169 0.08346 0.0253 Uiso
O6 O 0.37641 0.11062 0.18232 0.0253 Uiso
C1 C 0.49691 0.06648 0.16360 0.0253 Uiso
C2 C 0.40052 0.09594 0.25000 0.0253 Uiso
C3 C 0.46280 0.07214 0.25000 0.0253 Uiso
N1 N 0.46119 0.06657 0.07467 0.0253 Uiso
O6O O 0.37641 0.11062 0.31768 0.0253 Uiso
C1O C 0.49691 0.06648 0.33640 0.0253 Uiso
N1O N 0.46119 0.06657 0.42533 0.0253 Uiso
O6S O 0.73421 0.11062 0.18232 0.0253 Uiso
C1S C 0.56957 0.06648 0.16360 0.0253 Uiso
C2J C 0.69542 0.09594 0.25000 0.0253 Uiso
C3J C 0.60934 0.07214 0.25000 0.0253 Uiso
N1S N 0.60538 0.06657 0.07467 0.0253 Uiso
O6J O 0.73421 0.11062 0.31768 0.0253 Uiso
C1J C 0.56957 0.06648 0.33640 0.0253 Uiso
N1J N 0.60538 0.06657 0.42533 0.0253 Uiso
Al1A Al -0.15864 0.00000 0.00000 0.0253 Uiso
Al2A Al -0.15331 0.15331 0.12799 0.0253 Uiso
O1A O -0.04753 0.04753 0.05707 0.0253 Uiso
O2A O -0.17927 0.17927 0.00510 0.0253 Uiso
O3A O -0.19578 -0.09789 0.06295 0.0253 Uiso
O4A O -0.12261 0.12261 0.25000 0.0253 Uiso
O5A O -0.19169 0.05503 0.08346 0.0253 Uiso
Al1B Al 0.00000 -0.15864 0.00000 0.0253 Uiso
Al2B Al -0.15331 -0.30662 0.12799 0.0253 Uiso
O1B O -0.04753 -0.09506 0.05707 0.0253 Uiso
O2B O -0.17927 -0.35854 0.00510 0.0253 Uiso
O3B O 0.09789 -0.09789 0.06295 0.0253 Uiso
O4B O -0.12261 -0.24522 0.25000 0.0253 Uiso
O5B O -0.05503 -0.24672 0.08346 0.0253 Uiso
Al2F Al 0.15331 0.30662 -0.12799 0.0253 Uiso
O1F O 0.04753 0.09506 -0.05707 0.0253 Uiso
O2F O 0.17927 0.35854 -0.00510 0.0253 Uiso
O3F O 0.19578 0.09789 -0.06295 0.0253 Uiso
O5F O 0.19169 0.24672 -0.08346 0.0253 Uiso
Al2G Al 0.15331 -0.15331 -0.12799 0.0253 Uiso
O1G O 0.04753 -0.04753 -0.05707 0.0253 Uiso
O2G O 0.17927 -0.17927 -0.00510 0.0253 Uiso
O3G O -0.09789 -0.19578 -0.06295 0.0253 Uiso
O5G O 0.05503 -0.19169 -0.08346 0.0253 Uiso
Al2H Al -0.30662 -0.15331 -0.12799 0.0253 Uiso
O1H O -0.09506 -0.04753 -0.05707 0.0253 Uiso
O2H O -0.35854 -0.17927 -0.00510 0.0253 Uiso
O3H O -0.09789 0.09789 -0.06295 0.0253 Uiso
O5H O -0.24672 -0.05503 -0.08346 0.0253 Uiso
Al1L Al -0.15864 -0.15864 0.00000 0.0253 Uiso
O5L O -0.24672 -0.19169 -0.08346 0.0253 Uiso
Al1M Al 0.15864 0.00000 0.00000 0.0253 Uiso
O5M O 0.19169 -0.05503 -0.08346 0.0253 Uiso
Al1N Al 0.00000 0.15864 0.00000 0.0253 Uiso
O5N O 0.05503 0.24672 -0.08346 0.0253 Uiso
O5R O -0.19169 -0.24672 0.08346 0.0253 Uiso
O6R O -0.11062 -0.37641 0.18232 0.0253 Uiso
C1R C -0.06648 -0.49691 0.16360 0.0253 Uiso
C2I C -0.09594 -0.40052 0.25000 0.0253 Uiso
C3I C -0.07214 -0.46280 0.25000 0.0253 Uiso
N1R N -0.06657 -0.46119 0.07467 0.0253 Uiso
O6I O -0.11062 -0.37641 0.31768 0.0253 Uiso
C1I C -0.06648 -0.49691 0.33640 0.0253 Uiso
N1I N -0.06657 -0.46119 0.42533 0.0253 Uiso
O6A O -0.11062 -0.73421 0.18232 0.0253 Uiso
C1A C -0.06648 -0.56957 0.16360 0.0253 Uiso
C2A C -0.09594 -0.69542 0.25000 0.0253 Uiso
C3A C -0.07214 -0.60934 0.25000 0.0253 Uiso
N1A N -0.06657 -0.60538 0.07467 0.0253 Uiso
O6P O -0.11062 -0.73421 0.31768 0.0253 Uiso
C1P C -0.06648 -0.56957 0.33640 0.0253 Uiso
N1P N -0.06657 -0.60538 0.42533 0.0253 Uiso
O5S O -0.05503 0.19169 0.08346 0.0253 Uiso
O5T O 0.24672 0.05503 0.08346 0.0253 Uiso
O6T O 0.37641 0.26579 0.18232 0.0253 Uiso
C1T C 0.49691 0.43043 0.16360 0.0253 Uiso
C2K C 0.40052 0.30458 0.25000 0.0253 Uiso
C3K C 0.46280 0.39066 0.25000 0.0253 Uiso
N1T N 0.46119 0.39462 0.07467 0.0253 Uiso
O6K O 0.37641 0.26579 0.31768 0.0253 Uiso
C1K C 0.49691 0.43043 0.33640 0.0253 Uiso
N1K N 0.46119 0.39462 0.42533 0.0253 Uiso
O6B O 0.73421 0.62359 0.18232 0.0253 Uiso
C1B C 0.56957 0.50309 0.16360 0.0253 Uiso
C2B C 0.69542 0.59948 0.25000 0.0253 Uiso
C3B C 0.60934 0.53720 0.25000 0.0253 Uiso
N1B N 0.60538 0.53881 0.07467 0.0253 Uiso
O6Q O 0.73421 0.62359 0.31768 0.0253 Uiso
C1Q C 0.56957 0.50309 0.33640 0.0253 Uiso
N1Q N 0.60538 0.53881 0.42533 0.0253 Uiso
Al2A_2 Al -0.15331 -0.84669 0.12799 0.0253 Uiso
Al2A_3 Al 0.84669 0.15331 0.12799 0.0253 Uiso
Al2B_2 Al 0.84669 0.69338 0.12799 0.0253 Uiso
Al2I Al -0.15331 -0.30662 0.37201 0.0253 Uiso
Al2I_2 Al 0.84669 0.69338 0.37201 0.0253 Uiso
Al2J Al -0.15331 -0.84669 0.37201 0.0253 Uiso
Al2J_2 Al -0.15331 0.15331 0.37201 0.0253 Uiso
Al2J_3 Al 0.84669 0.15331 0.37201 0.0253 Uiso
Al2K Al 0.30662 0.15331 0.37201 0.0253 Uiso
O4C O -0.24522 -0.12261 -0.25000 0.0253 Uiso
O4D O 0.12261 -0.12261 -0.25000 0.0253 Uiso
O4E O 0.12261 0.24522 -0.25000 0.0253 Uiso
O6A_2 O -0.11062 0.26579 0.18232 0.0253 Uiso
O6B_2 O -0.26579 -0.37641 0.18232 0.0253 Uiso
O6F O 0.11062 0.37641 -0.18232 0.0253 Uiso
O6G O 0.26579 -0.11062 -0.18232 0.0253 Uiso
O6H O -0.37641 -0.26579 -0.18232 0.0253 Uiso
O6L O -0.37641 -0.11062 -0.18232 0.0253 Uiso
O6M O 0.11062 -0.26579 -0.18232 0.0253 Uiso
O6N O 0.26579 0.37641 -0.18232 0.0253 Uiso
O6S_2 O -0.26579 0.11062 0.18232 0.0253 Uiso
loop_
_geom_bond_atom_site_label_1
_geom_bond_atom_site_label_2
_geom_bond_site_symmetry_1
_geom_bond_site_symmetry_2
Al1 O1 1_555 1_555
Al2 O2 1_555 1_555
Al3 O1 1_555 1_555
O1 Al1M 1_555 1_555
O3 Al1 1_555 1_555
O4 Al2 1_555 1_555
O5 Al1 1_555 1_555
O6 Al2 1_555 1_555
C1 C3 1_555 1_555
C2 O6 1_555 1_555
C3 C2 1_555 1_555
N1 C1 1_555 1_555
O6O C2 1_555 1_555
C1O C3 1_555 1_555
N1O C1O 1_555 1_555
O6S C2J 1_555 1_555
C1S C1 1_555 1_555
C2J C3J 1_555 1_555
C3J C1S 1_555 1_555
N1S C1S 1_555 1_555
O6J C2J 1_555 1_555
C1J C1O 1_555 1_555
N1J C1J 1_555 1_555
Al1A O1A 1_555 1_555
Al2A O2A 1_555 1_555
O1A Al3 1_555 1_555
O3A Al1A 1_555 1_555
O4A Al2A 1_555 1_555
O5A Al1A 1_555 1_555
Al1B O1B 1_555 1_555
Al2B O2B 1_555 1_555
O1B Al3 1_555 1_555
O3B Al1B 1_555 1_555
O4B Al2B 1_555 1_555
O5B Al1B 1_555 1_555
Al2F O2F 1_555 1_555
O1F Al1 1_555 1_555
O3F Al1 1_555 1_555
O5F Al1 1_555 1_555
Al2G O2G 1_555 1_555
O1G Al3 1_555 1_555
O3G Al1B 1_555 1_555
O5G Al1B 1_555 1_555
Al2H O2H 1_555 1_555
O1H Al3 1_555 1_555
O3H Al1A 1_555 1_555
O5H Al1A 1_555 1_555
Al1L O3A 1_555 1_555
O5L Al2H 1_555 1_555
Al1M O3B 1_555 1_555
O5M Al2G 1_555 1_555
Al1N O3 1_555 1_555
O5N Al2F 1_555 1_555
O5R Al2B 1_555 1_555
O6R Al2B 1_555 1_555
C1R C3I 1_555 1_555
C2I O6R 1_555 1_555
C3I C2I 1_555 1_555
N1R C1R 1_555 1_555
O6I C2I 1_555 1_555
C1I C3I 1_555 1_555
N1I C1I 1_555 1_555
O6A C2A 1_555 1_555
C1A C1R 1_555 1_555
C2A C3A 1_555 1_555
C3A C1A 1_555 1_555
N1A C1A 1_555 1_555
O6P C2A 1_555 1_555
C1P C1I 1_555 1_555
N1P C1P 1_555 1_555
O5S Al2A 1_555 1_555
O5T Al2 1_555 1_555
O6T Al2 1_555 1_555
C1T C3K 1_555 1_555
C2K O6T 1_555 1_555
C3K C2K 1_555 1_555
N1T C1T 1_555 1_555
O6K C2K 1_555 1_555
C1K C3K 1_555 1_555
N1K C1K 1_555 1_555
O6B C2B 1_555 1_555
C1B C1T 1_555 1_555
C2B C3B 1_555 1_555
C3B C1B 1_555 1_555
N1B C1B 1_555 1_555
O6Q C2B 1_555 1_555
C1Q C1K 1_555 1_555
N1Q C1Q 1_555 1_555
Al2A_2 O6A 1_555 1_555
Al2A_3 O6S 1_555 1_555
Al2B_2 O6B 1_555 1_555
Al2I O4B 1_555 1_555
Al2I_2 O6Q 1_555 1_555
Al2J O6P 1_555 1_555
Al2J_2 O4A 1_555 1_555
Al2J_3 O6J 1_555 1_555
Al2K O4 1_555 1_555
O4C Al2H 1_555 1_555
O4D Al2G 1_555 1_555
O4E Al2F 1_555 1_555
O6A_2 Al2A 1_555 1_555
O6B_2 Al2B 1_555 1_555
O6F Al2F 1_555 1_555
O6G Al2G 1_555 1_555
O6H Al2H 1_555 1_555
O6L Al2H 1_555 1_555
O6M Al2G 1_555 1_555
O6N Al2F 1_555 1_555
O6S_2 Al2A 1_555 1_555
Al2 O5 1_555 1_555
Al3 O1F 1_555 1_555
O6O Al2K 1_555 1_555
C3J C1J 1_555 1_555
Al1A O1H 1_555 1_555
Al2A O5A 1_555 1_555
O1A Al1N 1_555 1_555
Al1B O1G 1_555 1_555
Al2B O5B 1_555 1_555
O1B Al1L 1_555 1_555
Al2F O5F 1_555 1_555
O1F Al1N 1_555 1_555
O3F Al1M 1_555 1_555
Al2G O5G 1_555 1_555
O1G Al1M 1_555 1_555
O3G Al1L 1_555 1_555
Al2H O5H 1_555 1_555
O1H Al1L 1_555 1_555
O3H Al1N 1_555 1_555
Al1L O5L 1_555 1_555
Al1L O5R 1_555 1_555
Al1M O5M 1_555 1_555
Al1M O5T 1_555 1_555
Al1N O5N 1_555 1_555
Al1N O5S 1_555 1_555
O6I Al2I 1_555 1_555
C3A C1P 1_555 1_555
O6K Al2K 1_555 1_555
C3B C1Q 1_555 1_555

#END
