
#######################################################################
#
#                 Cambridge Crystallographic Data Centre
#                                CCDC 
#
#######################################################################
#
# If this CIF has been generated from an entry in the Cambridge 
# Structural Database, then it will include bibliographic, chemical, 
# crystal, experimental, refinement or atomic coordinate data resulting 
# from the CCDC's data processing and validation procedures.
#
#######################################################################

data_GAWBUE
_chemical_name_common            MIL-110
_chemical_formula_moiety         
'3(C9 H3 O6 3-),8(Al1 3+),15(H1 O1 1-),45(H2 O1)'
_chemical_name_systematic        
'octa-aluminium pentadecahydroxide tris(benzene-1,3,5-tricarboxylate) pentatetracontahydrate'
_symmetry_cell_setting           hexagonal
_symmetry_space_group_name_H-M   'P -6 2 c'
_symmetry_Int_Tables_number      190
_space_group_name_Hall           'P -6c -2c'
loop_
_symmetry_equiv_pos_site_id
_symmetry_equiv_pos_as_xyz
1 x,y,z
2 -y,x-y,z
3 -x+y,-x,z
4 x,y,1/2-z
5 -y,x-y,1/2-z
6 -x+y,-x,1/2-z
7 y,x,-z
8 x-y,-y,-z
9 -x,-x+y,-z
10 y,x,1/2+z
11 x-y,-y,1/2+z
12 -x,-x+y,1/2+z
_cell_length_a                   21.520(5)
_cell_length_b                   21.520(5)
_cell_length_c                   13.021(1)
_cell_angle_alpha                90
_cell_angle_beta                 90
_cell_angle_gamma                120
_cell_volume                     5222.27
_cell_formula_units_Z            2
loop_
_atom_site_label
_atom_site_type_symbol
_atom_site_fract_x
_atom_site_fract_y
_atom_site_fract_z
O5 O 0.4531(22) 0.3069(14) 0.6050(14)
Al1 Al 0.6667 0.3333 0.5372(2)
Al2 Al 0.6185(5) 0.4455(4) 0.6522(6)
C1 C 0.5349(11) 0.4595(11) 0.3423(6)
C2 C 0.5180(20) 0.4782(18) 0.2500
C3 C 0.5814(14) 0.4285(15) 0.3409(7)
C4 C 0.5998(15) 0.4128(13) 0.2500
C5 C 0.4701(12) 0.5107(12) 0.2500
C6 C 0.5954(9) 0.4054(8) 0.4435(6)
O1 O 0.4497(11) 0.5215(10) 0.3285(5)
O2 O 0.5748(6) 0.4222(6) 0.5189(4)
O3 O 0.6370(8) 0.3795(8) 0.4434(5)
O4 O 0.6913(16) 0.5417(21) 0.6198(14)
C1C C 0.5349(11) 0.4595(11) 0.1577(6)
C3C C 0.5814(14) 0.4285(15) 0.1591(7)
C6C C 0.5954(9) 0.4054(8) 0.0565(6)
O1C O 0.4497(11) 0.5215(10) 0.1715(5)
O2C O 0.5748(6) 0.4222(6) -0.0189(4)
O3C O 0.6370(8) 0.3795(8) 0.0566(5)
Al2A Al 0.5545(4) 0.1730(6) 0.6522(6)
C1A C 0.5405(11) 0.0754(16) 0.3423(6)
C2A C 0.5218(18) 0.0398(27) 0.2500
C3A C 0.5715(15) 0.1529(21) 0.3409(7)
C4A C 0.5872(13) 0.1870(20) 0.2500
C5A C 0.4893(12) -0.0406(17) 0.2500
C6A C 0.5946(8) 0.1900(12) 0.4435(6)
O1A O 0.4785(10) -0.0718(15) 0.3285(5)
O2A O 0.5778(6) 0.1526(8) 0.5189(4)
O3A O 0.6205(8) 0.2575(11) 0.4434(5)
O4A O 0.4583(21) 0.1496(26) 0.6198(14)
C1D C 0.5405(11) 0.0754(16) 0.1577(6)
C3D C 0.5715(15) 0.1529(21) 0.1591(7)
C6D C 0.5946(8) 0.1900(12) 0.0565(6)
O1D O 0.4785(10) -0.0718(15) 0.1715(5)
O2D O 0.5778(6) 0.1526(8) -0.0189(4)
O3D O 0.6205(8) 0.2575(11) 0.0566(5)
Al2B Al 0.8270(6) 0.3815(5) 0.6522(6)
C1B C 0.9246(16) 0.4651(11) 0.3423(6)
C2B C 0.9602(27) 0.4820(20) 0.2500
C3B C 0.8471(21) 0.4186(14) 0.3409(7)
C4B C 0.8130(20) 0.4002(15) 0.2500
C5B C 1.0406(17) 0.5299(12) 0.2500
C6B C 0.8100(12) 0.4046(9) 0.4435(6)
O1B O 1.0718(15) 0.5503(11) 0.3285(5)
O2B O 0.8474(8) 0.4252(6) 0.5189(4)
O3B O 0.7425(11) 0.3630(8) 0.4434(5)
O4B O 0.8504(26) 0.3087(16) 0.6198(14)
C1E C 0.9246(16) 0.4651(11) 0.1577(6)
C3E C 0.8471(21) 0.4186(14) 0.1591(7)
C6E C 0.8100(12) 0.4046(9) 0.0565(6)
O1E O 1.0718(15) 0.5503(11) 0.1715(5)
O2E O 0.8474(8) 0.4252(6) -0.0189(4)
O3E O 0.7425(11) 0.3630(8) 0.0566(5)
Al1C Al 0.6667 0.3333 -0.0372(2)
Al2C Al 0.6185(5) 0.4455(4) -0.1522(6)
O4C O 0.6913(16) 0.5417(21) -0.1198(14)
Al2D Al 0.5545(4) 0.1730(6) -0.1522(6)
O4D O 0.4583(21) 0.1496(26) -0.1198(14)
Al2E Al 0.8270(6) 0.3815(5) -0.1522(6)
O4E O 0.8504(26) 0.3087(16) -0.1198(14)
Al2F Al 0.4455(4) 0.6185(5) 0.3478(6)
Al2G Al 1.1730(6) 0.5545(4) 0.3478(6)
Al2H Al 0.3815(5) -0.1730(6) 0.3478(6)
Al2I Al 0.4455(4) 0.6185(5) 0.1522(6)
Al2J Al 1.1730(6) 0.5545(4) 0.1522(6)
Al2K Al 0.3815(5) -0.1730(6) 0.1522(6)
O1F O 0.5215(10) 0.4497(11) 0.6715(5)
O1G O 0.9282(15) 0.4785(10) 0.6715(5)
O1H O 0.5503(11) 0.0718(15) 0.6715(5)
O1I O 0.5215(10) 0.4497(11) -0.1715(5)
O1J O 0.9282(15) 0.4785(10) -0.1715(5)
O1K O 0.5503(11) 0.0718(15) -0.1715(5)
Al3? Al 0.5574(5) 0.3832(5) 0.6521(6)
O6? O 0.5499(9) 0.3586(16) 0.4630(14)
O7? O 0.6447(15) 0.4602(8) 0.4586(10)
O8? O 0.6799(12) 0.4107(6) 0.5492(9)
O9? O 0.5895(7) 0.3237(13) 0.5524(9)
loop_
_geom_bond_atom_site_label_1
_geom_bond_atom_site_label_2
_geom_bond_site_symmetry_1
_geom_bond_site_symmetry_2
Al1 O3 1_555 1_555
Al2 O2 1_555 1_555
C1 C2 1_555 1_555
C2 C5 1_555 1_555
C3 C1 1_555 1_555
C4 C3 1_555 1_555
C5 O1 1_555 1_555
C6 C3 1_555 1_555
O1 Al2F 1_555 1_555
O2 C6 1_555 1_555
O3 C6 1_555 1_555
O4 Al2 1_555 1_555
C1C C2 1_555 1_555
C3C C4 1_555 1_555
C6C C3C 1_555 1_555
O1C C5 1_555 1_555
O2C C6C 1_555 1_555
O3C C6C 1_555 1_555
Al2A O2A 1_555 1_555
C1A C2A 1_555 1_555
C2A C5A 1_555 1_555
C3A C1A 1_555 1_555
C4A C3A 1_555 1_555
C5A O1A 1_555 1_555
C6A C3A 1_555 1_555
O1A Al2H 1_555 1_555
O2A C6A 1_555 1_555
O3A Al1 1_555 1_555
O4A Al2A 1_555 1_555
C1D C2A 1_555 1_555
C3D C4A 1_555 1_555
C6D C3D 1_555 1_555
O1D C5A 1_555 1_555
O2D C6D 1_555 1_555
O3D C6D 1_555 1_555
Al2B O2B 1_555 1_555
C1B C2B 1_555 1_555
C2B C5B 1_555 1_555
C3B C1B 1_555 1_555
C4B C3B 1_555 1_555
C5B O1B 1_555 1_555
C6B C3B 1_555 1_555
O1B Al2G 1_555 1_555
O2B C6B 1_555 1_555
O3B Al1 1_555 1_555
O4B Al2B 1_555 1_555
C1E C2B 1_555 1_555
C3E C4B 1_555 1_555
C6E C3E 1_555 1_555
O1E C5B 1_555 1_555
O2E C6E 1_555 1_555
O3E C6E 1_555 1_555
Al1C O3C 1_555 1_555
Al2C O2C 1_555 1_555
O4C Al2C 1_555 1_555
Al2D O2D 1_555 1_555
O4D Al2D 1_555 1_555
Al2E O2E 1_555 1_555
O4E Al2E 1_555 1_555
Al2I O1C 1_555 1_555
Al2J O1E 1_555 1_555
Al2K O1D 1_555 1_555
O1F Al2 1_555 1_555
O1G Al2B 1_555 1_555
O1H Al2A 1_555 1_555
O1I Al2C 1_555 1_555
O1J Al2E 1_555 1_555
O1K Al2D 1_555 1_555
C1C C3C 1_555 1_555
C6A O3A 1_555 1_555
C1D C3D 1_555 1_555
O3D Al1C 1_555 1_555
C6B O3B 1_555 1_555
C1E C3E 1_555 1_555
O3E Al1C 1_555 1_555

#END
