
#######################################################################
#
#                 Cambridge Crystallographic Data Centre
#                                CCDC 
#
#######################################################################
#
# If this CIF has been generated from an entry in the Cambridge 
# Structural Database, then it will include bibliographic, chemical, 
# crystal, experimental, refinement or atomic coordinate data resulting 
# from the CCDC's data processing and validation procedures.
#
#######################################################################

data_KEDZAX
_chemical_name_common            SIFSIX-3-Zn
_chemical_formula_moiety         '(C8 H8 F6 N4 Si1 Zn1)n'
_chemical_name_systematic        
'catena-((\m~2~-hexafluorosilicato)-bis(\m~2~-pyrazine)-zinc(ii) unknown solvate)'
_symmetry_cell_setting           tetragonal
_symmetry_space_group_name_H-M   'P 4/m m m'
_symmetry_Int_Tables_number      123
_space_group_name_Hall           '-P 4 2'
loop_
_symmetry_equiv_pos_site_id
_symmetry_equiv_pos_as_xyz
1 x,y,z
2 -x,-y,z
3 -y,x,z
4 y,-x,z
5 -x,y,-z
6 x,-y,-z
7 y,x,-z
8 -y,-x,-z
9 -x,-y,-z
10 x,y,-z
11 y,-x,-z
12 -y,x,-z
13 x,-y,z
14 -x,y,z
15 -y,-x,z
16 y,x,z
_cell_length_a                   7.1151(2)
_cell_length_b                   7.1151(2)
_cell_length_c                   7.5747(3)
_cell_angle_alpha                90
_cell_angle_beta                 90
_cell_angle_gamma                90
_cell_volume                     383.467
_exptl_crystal_colour            colorless
_exptl_crystal_description       block
_cell_formula_units_Z            1
loop_
_atom_site_label
_atom_site_type_symbol
_atom_site_fract_x
_atom_site_fract_y
_atom_site_fract_z
Zn1 Zn 0.0000 1.0000 1.0000
Si1 Si 0.0000 1.0000 0.5000
F1 F 0.0000 1.0000 0.7285(3)
F2 F 0.16536(15) 0.83464(15) 0.5000
N1 N 0.0000 0.6961(3) 1.0000
C1 C 0.0381(4) 0.5972(4) 0.8549(3)
H1 H 0.0660 0.6621 0.7484
F2A F -0.16536(15) 1.16536(15) 0.5000
F2B F 0.16536(15) 1.16536(15) 0.5000
F2C F -0.16536(15) 0.83464(15) 0.5000
F1D F 0.0000 1.0000 0.2715(3)
N1A N 0.0000 0.3039(3) 1.0000
C1A C -0.0381(4) 0.4028(4) 0.8549(3)
H1A H -0.0660 0.3379 0.7484
C1D C -0.0381(4) 0.5972(4) 1.1451(3)
H1D H -0.0660 0.6621 1.2516
C1E C 0.0381(4) 0.4028(4) 1.1451(3)
H1E H 0.0660 0.3379 1.2516
C1H C -0.0381(4) 0.4028(4) 1.1451(3)
H1H H -0.0660 0.3379 1.2516
C1I C 0.0381(4) 0.5972(4) 1.1451(3)
H1I H 0.0660 0.6621 1.2516
C1L C 0.0381(4) 0.4028(4) 0.8549(3)
H1L H 0.0660 0.3379 0.7484
C1M C -0.0381(4) 0.5972(4) 0.8549(3)
H1M H -0.0660 0.6621 0.7484
N1B N 0.3039(3) 1.0000 1.0000
C1B C 0.4028(4) 1.0381(4) 0.8549(3)
H1B H 0.3379 1.0660 0.7484
N1C N 0.6961(3) 1.0000 1.0000
C1C C 0.5972(4) 0.9619(4) 0.8549(3)
H1C H 0.6621 0.9340 0.7484
C1G C 0.4028(4) 0.9619(4) 1.1451(3)
H1G H 0.3379 0.9340 1.2516
C1F C 0.5972(4) 1.0381(4) 1.1451(3)
H1F H 0.6621 1.0660 1.2516
C1J C 0.5972(4) 0.9619(4) 1.1451(3)
H1J H 0.6621 0.9340 1.2516
C1K C 0.4028(4) 1.0381(4) 1.1451(3)
H1K H 0.3379 1.0660 1.2516
C1O C 0.5972(4) 1.0381(4) 0.8549(3)
H1O H 0.6621 1.0660 0.7484
C1N C 0.4028(4) 0.9619(4) 0.8549(3)
H1N H 0.3379 0.9340 0.7484
Zn1_2 Zn 0.0000 0.0000 1.0000
Zn1_3 Zn 0.0000 1.0000 0.0000
Zn1_4 Zn 1.0000 1.0000 1.0000
F1D_2 F 0.0000 1.0000 1.2715(3)
N1A_2 N 0.0000 1.3039(3) 1.0000
N1C_2 N -0.3039(3) 1.0000 1.0000
loop_
_geom_bond_atom_site_label_1
_geom_bond_atom_site_label_2
_geom_bond_site_symmetry_1
_geom_bond_site_symmetry_2
Zn1 F1 1_555 1_555
Si1 F1 1_555 1_555
F2 Si1 1_555 1_555
N1 Zn1 1_555 1_555
C1 N1 1_555 1_555
H1 C1 1_555 1_555
F2A Si1 1_555 1_555
F2B Si1 1_555 1_555
F2C Si1 1_555 1_555
F1D Si1 1_555 1_555
N1A C1A 1_555 1_555
C1A C1 1_555 1_555
H1A C1A 1_555 1_555
C1D N1 1_555 1_555
H1D C1D 1_555 1_555
C1E N1A 1_555 1_555
H1E C1E 1_555 1_555
C1H N1A 1_555 1_555
H1H C1E 1_555 1_555
C1I N1 1_555 1_555
H1I C1D 1_555 1_555
C1L C1 1_555 1_555
H1L C1A 1_555 1_555
C1M N1 1_555 1_555
H1M C1 1_555 1_555
N1B Zn1 1_555 1_555
C1B N1B 1_555 1_555
H1B C1B 1_555 1_555
N1C C1C 1_555 1_555
C1C C1B 1_555 1_555
H1C C1C 1_555 1_555
C1G N1B 1_555 1_555
H1G C1G 1_555 1_555
C1F N1C 1_555 1_555
H1F C1F 1_555 1_555
C1J N1C 1_555 1_555
H1J C1F 1_555 1_555
C1K N1B 1_555 1_555
H1K C1G 1_555 1_555
C1O C1B 1_555 1_555
H1O C1C 1_555 1_555
C1N N1B 1_555 1_555
H1N C1B 1_555 1_555
Zn1_2 N1A 1_555 1_555
Zn1_3 F1D 1_555 1_555
Zn1_4 N1C 1_555 1_555
F1D_2 Zn1 1_555 1_555
N1A_2 Zn1 1_555 1_555
N1C_2 Zn1 1_555 1_555
H1 C1M 1_555 1_555
N1A C1L 1_555 1_555
C1A C1M 1_555 1_555
H1A C1L 1_555 1_555
C1D C1E 1_555 1_555
C1D C1H 1_555 1_555
H1D C1I 1_555 1_555
C1E C1I 1_555 1_555
H1E C1H 1_555 1_555
C1H H1H 1_555 1_555
C1H C1I 1_555 1_555
C1I H1I 1_555 1_555
C1L H1L 1_555 1_555
C1L C1M 1_555 1_555
C1M H1M 1_555 1_555
H1B C1N 1_555 1_555
N1C C1O 1_555 1_555
C1C C1N 1_555 1_555
H1C C1O 1_555 1_555
C1G C1F 1_555 1_555
C1G C1J 1_555 1_555
H1G C1K 1_555 1_555
C1F C1K 1_555 1_555
H1F C1J 1_555 1_555
C1J H1J 1_555 1_555
C1J C1K 1_555 1_555
C1K H1K 1_555 1_555
C1O H1O 1_555 1_555
C1O C1N 1_555 1_555
C1N H1N 1_555 1_555

#END
