
#######################################################################
#
#                 Cambridge Crystallographic Data Centre
#                                CCDC 
#
#######################################################################
#
# If this CIF has been generated from an entry in the Cambridge 
# Structural Database, then it will include bibliographic, chemical, 
# crystal, experimental, refinement or atomic coordinate data resulting 
# from the CCDC's data processing and validation procedures.
#
#######################################################################

data_WUZHOR
_chemical_formula_moiety         '(C72 H76 N4 O30 Zn8)n,2(C36 H38 N2 O15 Zn4)n'
_chemical_name_systematic        
'catena-[bis(tris(\m-2,5-dimethylbenzene-1,4-dicarboxylato)-(\m-oxido)-bis(N,N-dimethylformamide)-tetra-zinc) hexakis(\m-2,5-dimethylbenzene-1,4-dicarboxylato)-bis(\m-oxido)-tetrakis(N,N-dimethylformamide)-octa-zinc]'
_symmetry_cell_setting           monoclinic
_symmetry_space_group_name_H-M   'P 21/c'
_symmetry_Int_Tables_number      14
_space_group_name_Hall           '-P 2ybc'
loop_
_symmetry_equiv_pos_site_id
_symmetry_equiv_pos_as_xyz
1 x,y,z
2 -x,1/2+y,1/2-z
3 -x,-y,-z
4 x,1/2-y,1/2+z
_cell_length_a                   17.8530(9)
_cell_length_b                   18.5810(11)
_cell_length_c                   25.3020(15)
_cell_angle_alpha                90
_cell_angle_beta                 91.504(2)
_cell_angle_gamma                90
_cell_volume                     8390.45
_exptl_crystal_colour            colorless
_exptl_crystal_description       block
_cell_formula_units_Z            2
loop_
_atom_site_label
_atom_site_type_symbol
_atom_site_fract_x
_atom_site_fract_y
_atom_site_fract_z
O1 O 0.74714(12) 0.69517(12) 0.25161(9)
Zn1 Zn 0.74815(2) 0.61997(2) 0.19865(2)
Zn2 Zn 0.83670(2) 0.69352(2) 0.29501(2)
Zn3 Zn 0.66094(2) 0.68483(2) 0.29543(2)
Zn4 Zn 0.73605(2) 0.78890(2) 0.21286(2)
O2 O 0.66429(13) 0.55307(13) 0.20670(10)
C1 C 0.61568(19) 0.55029(19) 0.24245(14)
O3 O 0.61241(14) 0.59172(14) 0.28139(10)
C2 C 0.55846(19) 0.49102(19) 0.23734(14)
C3 C 0.4903(2) 0.4931(2) 0.26421(16)
C4 C 0.4410(2) 0.4353(2) 0.25557(16)
H1 H 0.393835 0.436272 0.272144
C5 C 0.45769(19) 0.3767(2) 0.22396(15)
C6 C 0.5265(2) 0.3743(2) 0.19787(15)
C7 C 0.5742(2) 0.4329(2) 0.20481(15)
H2 H 0.619842 0.433335 0.186359
C8 C 0.4663(3) 0.5534(3) 0.3002(2)
H3 H 0.414272 0.545655 0.310269
H4 H 0.470297 0.599470 0.281692
H5 H 0.498792 0.554026 0.332047
C9 C 0.5499(2) 0.3136(2) 0.16181(17)
H6 H 0.593852 0.328527 0.142104
H7 H 0.508633 0.302173 0.136953
H8 H 0.562462 0.270994 0.183057
O4 O 0.42034(13) 0.25573(14) 0.20743(11)
C10 C 0.3989(2) 0.3181(2) 0.21972(14)
O5 O 0.33259(13) 0.33477(14) 0.23001(11)
O6 O 0.69154(14) 0.68903(14) 0.37151(10)
C11 C 0.7537(2) 0.70385(19) 0.39331(14)
O7 O 0.81628(14) 0.70118(15) 0.37056(10)
C12 C 0.7559(2) 0.7260(2) 0.45050(14)
C13 C 0.8237(2) 0.7172(2) 0.47887(15)
H9 H 0.864989 0.696732 0.461365
C14 C 0.8331(2) 0.7372(2) 0.53142(15)
C15 C 0.7720(2) 0.7698(2) 0.55561(15)
C16 C 0.7062(2) 0.7807(2) 0.52743(16)
H10 H 0.666266 0.804417 0.544440
C17 C 0.6950(2) 0.7589(2) 0.47521(15)
C18 C 0.6197(2) 0.7731(3) 0.44856(18)
H11 H 0.588479 0.801254 0.472257
H12 H 0.594878 0.727227 0.440364
H13 H 0.626776 0.800058 0.415783
C19 C 0.9088(2) 0.7254(3) 0.55857(17)
H14 H 0.907841 0.680500 0.578869
H15 H 0.919924 0.765718 0.582462
H16 H 0.947495 0.722332 0.531913
C20 C 0.77595(19) 0.7935(2) 0.61308(14)
O8 O 0.74955(15) 0.85483(14) 0.62340(10)
O9 O 0.80237(14) 0.75048(15) 0.64700(10)
O10 O 0.82967(13) 0.84375(13) 0.23941(10)
C21 C 0.89052(19) 0.83015(19) 0.26232(14)
O11 O 0.90789(14) 0.77170(14) 0.28458(11)
C22 C 0.94907(19) 0.88921(19) 0.26278(15)
C23 C 0.93687(19) 0.9466(2) 0.22813(15)
H17 H 0.892151 0.946577 0.206937
C24 C 0.9859(2) 1.0037(2) 0.22272(15)
C25 C 1.0512(2) 1.00305(19) 0.25513(14)
C26 C 1.0625(2) 0.9470(2) 0.29099(16)
H18 H 1.106037 0.948339 0.313375
C27 C 1.0133(2) 0.8889(2) 0.29589(16)
C28 C 0.9648(2) 1.0624(2) 0.18331(18)
H19 H 0.915633 1.051657 0.167022
H20 H 1.002403 1.064671 0.155850
H21 H 0.962663 1.108813 0.201632
C29 C 1.0321(3) 0.8319(3) 0.3367(2)
H22 H 1.044273 0.786763 0.318878
H23 H 0.988971 0.824429 0.359252
H24 H 1.075261 0.847633 0.358497
O12 O 1.10518(14) 1.10574(14) 0.21639(10)
C30 C 1.11001(18) 1.06096(19) 0.25360(14)
O13 O 1.16027(14) 1.06050(14) 0.28960(10)
O14 O 0.71142(14) 0.87651(15) 0.16365(11)
C31 C 0.7600(2) 0.9021(2) 0.13546(16)
H25 H 0.810219 0.886839 0.141723
N1 N 0.7472(2) 0.9490(2) 0.09730(15)
C32 C 0.8084(4) 0.9761(4) 0.0651(2)
H26 H 0.856108 0.955917 0.078240
H27 H 0.810261 1.028678 0.067410
H28 H 0.799721 0.961652 0.028197
C33 C 0.6723(3) 0.9739(3) 0.0852(3)
H29 H 0.654085 0.951783 0.052093
H30 H 0.672625 1.026333 0.081284
H31 H 0.639304 0.960394 0.113882
C34 C 0.5928(2) 0.7645(3) 0.14705(19)
H32 H 0.603446 0.810790 0.133253
N2 N 0.5309(3) 0.7319(4) 0.1297(3)
O15 O 0.63663(14) 0.73940(14) 0.17902(11)
C35 C 0.4848(4) 0.7595(5) 0.0867(3)
H33 H 0.442025 0.727294 0.080454
H34 H 0.466710 0.807582 0.095773
H35 H 0.514462 0.762228 0.054745
C36 C 0.4981(4) 0.6781(5) 0.1634(4)
H36 H 0.452872 0.658497 0.145983
H37 H 0.534284 0.639259 0.169927
H38 H 0.484934 0.700149 0.197108
Zn1A Zn 1.25185(2) 1.11997(2) 0.30135(2)
Zn1C Zn 0.74815(2) 0.88003(2) 0.69865(2)
Zn2A Zn 1.16330(2) 1.19352(2) 0.20499(2)
Zn3A Zn 0.33906(2) 0.18483(2) 0.20457(2)
Zn4A Zn 0.26395(2) 0.28890(2) 0.28714(2)
Zn4C Zn 0.73605(2) 0.71110(2) 0.71286(2)
O4A O 0.57966(13) 0.75573(14) 0.29257(11)
O5A O 0.66741(13) 0.83477(14) 0.26999(11)
O8C O 0.74955(15) 0.64517(14) 0.12340(10)
O9C O 0.80237(14) 0.74952(15) 0.14700(10)
O12A O 0.89482(14) 0.60574(14) 0.28361(10)
O13A O 0.83973(14) 0.56050(14) 0.21040(10)
O16 O 0.24938(12) 0.74791(12) 0.01387(9)
Zn5 Zn 0.24390(2) 0.66382(2) 0.06287(2)
Zn6 Zn 0.15880(2) 0.74767(2) -0.02957(2)
Zn7 Zn 0.25138(2) 0.83523(2) 0.05389(2)
Zn8 Zn 0.33704(2) 0.74856(2) -0.02806(2)
O17 O 0.33585(15) 0.60670(15) 0.03966(11)
C37 C 0.3876(2) 0.6116(2) 0.00808(16)
O18 O 0.39698(16) 0.66344(16) -0.02418(13)
C38 C 0.4449(2) 0.5521(2) 0.00557(17)
C39 C 0.4881(2) 0.5495(2) -0.03949(19)
H39 H 0.479481 0.584429 -0.066419
C40 C 0.4563(2) 0.5023(2) 0.04666(19)
C41 C 0.4128(3) 0.4992(3) 0.0972(2)
H40 H 0.364155 0.476311 0.090112
H41 H 0.405138 0.548123 0.110459
H42 H 0.441109 0.471135 0.123782
O19 O 0.17434(15) 0.60462(15) 0.00584(13)
C42 C 0.1072(2) 0.6154(2) -0.00806(16)
O20 O 0.08075(15) 0.67533(15) -0.02315(12)
C43 C 0.0529(2) 0.5541(2) -0.00562(17)
C44 C -0.0169(2) 0.5684(2) 0.01477(19)
H43 H -0.028352 0.616534 0.024282
C45 C -0.0709(2) 0.5156(2) 0.0219(2)
C46 C -0.1427(3) 0.5350(3) 0.0501(2)
H44 H -0.132054 0.572925 0.076151
H45 H -0.161773 0.492308 0.068112
H46 H -0.180301 0.552125 0.024179
O21 O 0.10617(17) 0.83972(16) -0.02433(13)
O22 O 0.16034(16) 0.89177(16) 0.04551(12)
C47 C 0.1111(2) 0.8881(2) 0.00957(15)
C48 C 0.0543(2) 0.9477(2) 0.00687(15)
C49 C 0.0587(2) 1.0089(2) 0.03908(16)
C50 C 0.0035(2) 1.0602(2) 0.03106(15)
H47 H 0.004853 1.102442 0.052166
C51 C 0.1189(2) 1.0235(2) 0.08125(17)
H48 H 0.111549 1.071585 0.096153
H49 H 0.168382 1.020894 0.065461
H50 H 0.115650 0.987423 0.109349
C52 C 0.3891(2) 0.8880(2) 0.00708(14)
O23 O 0.32577(16) 0.90266(15) 0.02487(13)
O24 O 0.40699(15) 0.82778(15) -0.01117(12)
C53 C 0.4456(2) 0.9469(2) 0.00561(15)
C54 C 0.4414(2) 1.0086(2) 0.03722(15)
C55 C 0.5030(2) 0.9398(2) -0.03057(16)
H51 H 0.504119 0.897645 -0.051739
C56 C 0.3824(2) 1.0225(2) 0.07791(18)
H52 H 0.397652 1.063502 0.100055
H53 H 0.376920 0.979710 0.100115
H54 H 0.334462 1.033278 0.059882
O25 O 0.26939(18) 0.83281(16) 0.12854(11)
C57 C 0.2810(2) 0.7723(2) 0.15021(15)
O26 O 0.30100(15) 0.71699(15) 0.12622(10)
C58 C 0.2701(2) 0.7689(2) 0.20913(15)
C59 C 0.2562(2) 0.8305(2) 0.23991(15)
C60 C 0.2463(2) 0.8185(2) 0.29386(16)
H55 H 0.235926 0.858505 0.315872
C61 C 0.2508(2) 0.7510(2) 0.31650(15)
C62 C 0.2630(2) 0.6901(2) 0.28556(16)
C63 C 0.2721(2) 0.7009(2) 0.23201(16)
H56 H 0.280086 0.660291 0.210042
C64 C 0.2507(3) 0.9066(2) 0.21963(17)
H57 H 0.247350 0.939822 0.249533
H58 H 0.205947 0.911450 0.196674
H59 H 0.295350 0.917916 0.199477
C65 C 0.2646(3) 0.6157(3) 0.30981(18)
H60 H 0.273858 0.579924 0.282274
H61 H 0.216261 0.605735 0.325824
H62 H 0.304561 0.613179 0.337019
O27 O 0.18616(16) 0.7598(2) 0.39560(11)
C66 C 0.2466(2) 0.7456(2) 0.37518(15)
O28 O 0.30596(16) 0.72682(19) 0.39933(11)
O29 O 0.14471(15) 0.71927(15) 0.09210(11)
C67 C 0.0970(2) 0.6923(2) 0.12020(18)
H63 H 0.089692 0.641712 0.117972
N3 N 0.0552(2) 0.7286(2) 0.15323(15)
C68 C 0.0640(3) 0.8063(3) 0.1599(2)
H64 H 0.100483 0.824196 0.134752
H65 H 0.081818 0.816648 0.196021
H66 H 0.015660 0.830018 0.153245
C69 C -0.0001(3) 0.6922(4) 0.1852(2)
H67 H -0.000632 0.640766 0.176750
H68 H -0.049827 0.712734 0.177608
H69 H 0.012930 0.698768 0.222768
O30 O 0.22187(16) 0.58336(14) 0.11552(12)
C70 C 0.2147(2) 0.5192(2) 0.10222(18)
H70 H 0.205789 0.508132 0.065951
N4 N 0.2191(2) 0.46582(19) 0.13698(16)
C71 C 0.2095(3) 0.3913(3) 0.1203(2)
H71 H 0.198825 0.389612 0.082138
H72 H 0.167615 0.369761 0.139035
H73 H 0.255444 0.364268 0.128565
C72 C 0.2363(3) 0.4816(3) 0.1922(2)
H74 H 0.279217 0.514451 0.194729
H75 H 0.248663 0.436775 0.210961
H76 H 0.192814 0.504119 0.208249
O17B O 0.66415(15) 0.39330(15) -0.03966(11)
C37B C 0.6124(2) 0.3884(2) -0.00808(16)
O18B O 0.60302(16) 0.33656(16) 0.02418(13)
C38B C 0.5551(2) 0.4479(2) -0.00557(17)
C39B C 0.5119(2) 0.4505(2) 0.03949(19)
H39B H 0.520519 0.415571 0.066419
C40B C 0.5437(2) 0.4977(2) -0.04666(19)
C41B C 0.5872(3) 0.5008(3) -0.0972(2)
H40B H 0.635845 0.523689 -0.090112
H41B H 0.594862 0.451877 -0.110459
H42B H 0.558891 0.528865 -0.123782
O19B O -0.17434(15) 0.39538(15) -0.00584(13)
C42B C -0.1072(2) 0.3846(2) 0.00806(16)
O20B O -0.08075(15) 0.32467(15) 0.02315(12)
C43B C -0.0529(2) 0.4459(2) 0.00562(17)
C44B C 0.0169(2) 0.4316(2) -0.01477(19)
H43B H 0.028352 0.383466 -0.024282
C45B C 0.0709(2) 0.4844(2) -0.0219(2)
C46B C 0.1427(3) 0.4650(3) -0.0501(2)
H44B H 0.132054 0.427075 -0.076151
H45B H 0.161773 0.507692 -0.068112
H46B H 0.180301 0.447875 -0.024179
O21B O -0.10617(17) 1.16028(16) 0.02433(13)
O22B O -0.16034(16) 1.10823(16) -0.04551(12)
C47B C -0.1111(2) 1.1119(2) -0.00957(15)
C48B C -0.0543(2) 1.0523(2) -0.00687(15)
C49B C -0.0587(2) 0.9911(2) -0.03908(16)
C50B C -0.0035(2) 0.9398(2) -0.03106(15)
H47B H -0.004853 0.897558 -0.052166
C51B C -0.1189(2) 0.9765(2) -0.08125(17)
H48B H -0.111549 0.928415 -0.096153
H49B H -0.168382 0.979106 -0.065461
H50B H -0.115650 1.012577 -0.109349
C52B C 0.6109(2) 1.1120(2) -0.00708(14)
O23B O 0.67423(16) 1.09734(15) -0.02487(13)
O24B O 0.59301(15) 1.17222(15) 0.01117(12)
C53B C 0.5544(2) 1.0531(2) -0.00561(15)
C54B C 0.5586(2) 0.9914(2) -0.03722(15)
C55B C 0.4970(2) 1.0602(2) 0.03057(16)
H51B H 0.495881 1.102355 0.051739
C56B C 0.6176(2) 0.9775(2) -0.07791(18)
H52B H 0.602348 0.936498 -0.100055
H53B H 0.623080 1.020290 -0.100115
H54B H 0.665538 0.966722 -0.059882
O16B O -0.24938(12) 0.25209(12) -0.01387(9)
Zn5B Zn -0.24390(2) 0.33618(2) -0.06287(2)
Zn6B Zn -0.15880(2) 0.25233(2) 0.02957(2)
Zn7B Zn -0.25138(2) 0.16477(2) -0.05389(2)
Zn8B Zn -0.33704(2) 0.25144(2) 0.02806(2)
O25B O -0.26939(18) 0.16719(16) -0.12854(11)
C57B C -0.2810(2) 0.2277(2) -0.15021(15)
O26B O -0.30100(15) 0.28301(15) -0.12622(10)
C58B C -0.2701(2) 0.2311(2) -0.20913(15)
C59B C -0.2562(2) 0.1695(2) -0.23991(15)
C60B C -0.2463(2) 0.1815(2) -0.29386(16)
H55B H -0.235926 0.141495 -0.315872
C61B C -0.2508(2) 0.2490(2) -0.31650(15)
C62B C -0.2630(2) 0.3099(2) -0.28556(16)
C63B C -0.2721(2) 0.2991(2) -0.23201(16)
H56B H -0.280086 0.339709 -0.210042
C64B C -0.2507(3) 0.0934(2) -0.21963(17)
H57B H -0.247350 0.060178 -0.249533
H58B H -0.205947 0.088550 -0.196674
H59B H -0.295350 0.082084 -0.199477
C65B C -0.2646(3) 0.3843(3) -0.30981(18)
H60B H -0.273858 0.420076 -0.282274
H61B H -0.216261 0.394265 -0.325824
H62B H -0.304561 0.386821 -0.337019
O27B O -0.18616(16) 0.2402(2) -0.39560(11)
C66B C -0.2466(2) 0.2544(2) -0.37518(15)
O28B O -0.30596(16) 0.27318(19) -0.39933(11)
O29B O -0.14471(15) 0.28073(15) -0.09210(11)
C67B C -0.0970(2) 0.3077(2) -0.12020(18)
H63B H -0.089692 0.358288 -0.117972
N3B N -0.0552(2) 0.2714(2) -0.15323(15)
C68B C -0.0640(3) 0.1937(3) -0.1599(2)
H64B H -0.100483 0.175804 -0.134752
H65B H -0.081818 0.183352 -0.196021
H66B H -0.015660 0.169982 -0.153245
C69B C 0.0001(3) 0.3078(4) -0.1852(2)
H67B H 0.000632 0.359234 -0.176750
H68B H 0.049827 0.287266 -0.177608
H69B H -0.012930 0.301232 -0.222768
O30B O -0.22187(16) 0.41664(14) -0.11552(12)
C70B C -0.2147(2) 0.4808(2) -0.10222(18)
H70B H -0.205789 0.491868 -0.065951
N4B N -0.2191(2) 0.53418(19) -0.13698(16)
C71B C -0.2095(3) 0.6087(3) -0.1203(2)
H71B H -0.198825 0.610388 -0.082138
H72B H -0.167615 0.630239 -0.139035
H73B H -0.255444 0.635732 -0.128565
C72B C -0.2363(3) 0.5184(3) -0.1922(2)
H74B H -0.279217 0.485549 -0.194729
H75B H -0.248663 0.563225 -0.210961
H76B H -0.192814 0.495881 -0.208249
Zn5B_2 Zn 0.75610(2) 0.33618(2) -0.06287(2)
Zn6A Zn -0.15880(2) 0.24767(2) -0.47043(2)
Zn6B_2 Zn -0.15880(2) 1.25233(2) 0.02957(2)
Zn6C Zn 0.15880(2) 0.75233(2) 0.47043(2)
Zn7B_2 Zn -0.25138(2) 1.16477(2) -0.05389(2)
Zn7B_3 Zn 0.74862(2) 1.16477(2) -0.05389(2)
Zn8A Zn -0.33704(2) 0.24856(2) -0.47194(2)
Zn8B_2 Zn 0.66296(2) 0.25144(2) 0.02806(2)
Zn8B_3 Zn 0.66296(2) 1.25144(2) 0.02806(2)
Zn8C Zn 0.33704(2) 0.75144(2) 0.47194(2)
O17B_2 O -0.33585(15) 0.39330(15) -0.03966(11)
O18B_2 O -0.39698(16) 0.33656(16) 0.02418(13)
O21B_2 O -0.10617(17) 0.16028(16) 0.02433(13)
O22B_2 O -0.16034(16) 0.10823(16) -0.04551(12)
O23B_2 O -0.32577(16) 0.09734(15) -0.02487(13)
O24B_2 O -0.40699(15) 0.17222(15) 0.01117(12)
O27A O -0.18616(16) 0.2598(2) 0.10440(11)
O27C O 0.18616(16) 0.7402(2) -0.10440(11)
O28A O -0.30596(16) 0.22682(19) 0.10067(11)
O28C O 0.30596(16) 0.77318(19) -0.10067(11)
H77? H 0.612266 0.784740 0.115785
N5? N 0.5146(12) 0.7656(14) 0.1530(10)
C73? C 0.4576(13) 0.8128(14) 0.1324(11)
H78? H 0.408698 0.797285 0.144867
H79? H 0.467833 0.862000 0.144522
H80? H 0.457375 0.811414 0.093672
H81? H 0.444388 0.670683 0.168357
H82? H 0.514127 0.650231 0.132835
H83? H 0.526133 0.662223 0.195115
loop_
_geom_bond_atom_site_label_1
_geom_bond_atom_site_label_2
_geom_bond_site_symmetry_1
_geom_bond_site_symmetry_2
O1 Zn1 1_555 1_555
Zn1 O2 1_555 1_555
Zn2 O1 1_555 1_555
Zn3 O1 1_555 1_555
Zn4 O1 1_555 1_555
O2 C1 1_555 1_555
C1 O3 1_555 1_555
O3 Zn3 1_555 1_555
C2 C1 1_555 1_555
C3 C2 1_555 1_555
C4 C3 1_555 1_555
H1 C4 1_555 1_555
C5 C4 1_555 1_555
C6 C5 1_555 1_555
C7 C2 1_555 1_555
H2 C7 1_555 1_555
C8 C3 1_555 1_555
H3 C8 1_555 1_555
H4 C8 1_555 1_555
H5 C8 1_555 1_555
C9 C6 1_555 1_555
H6 C9 1_555 1_555
H7 C9 1_555 1_555
H8 C9 1_555 1_555
O4 C10 1_555 1_555
C10 C5 1_555 1_555
O5 C10 1_555 1_555
O6 Zn3 1_555 1_555
C11 O6 1_555 1_555
O7 Zn2 1_555 1_555
C12 C11 1_555 1_555
C13 C12 1_555 1_555
H9 C13 1_555 1_555
C14 C13 1_555 1_555
C15 C14 1_555 1_555
C16 C15 1_555 1_555
H10 C16 1_555 1_555
C17 C12 1_555 1_555
C18 C17 1_555 1_555
H11 C18 1_555 1_555
H12 C18 1_555 1_555
H13 C18 1_555 1_555
C19 C14 1_555 1_555
H14 C19 1_555 1_555
H15 C19 1_555 1_555
H16 C19 1_555 1_555
C20 C15 1_555 1_555
O8 C20 1_555 1_555
O9 C20 1_555 1_555
O10 Zn4 1_555 1_555
C21 O10 1_555 1_555
O11 Zn2 1_555 1_555
C22 C21 1_555 1_555
C23 C22 1_555 1_555
H17 C23 1_555 1_555
C24 C23 1_555 1_555
C25 C24 1_555 1_555
C26 C25 1_555 1_555
H18 C26 1_555 1_555
C27 C22 1_555 1_555
C28 C24 1_555 1_555
H19 C28 1_555 1_555
H20 C28 1_555 1_555
H21 C28 1_555 1_555
C29 C27 1_555 1_555
H22 C29 1_555 1_555
H23 C29 1_555 1_555
H24 C29 1_555 1_555
O12 C30 1_555 1_555
C30 C25 1_555 1_555
O13 C30 1_555 1_555
O14 Zn4 1_555 1_555
C31 O14 1_555 1_555
H25 C31 1_555 1_555
N1 C31 1_555 1_555
C32 N1 1_555 1_555
H26 C32 1_555 1_555
H27 C32 1_555 1_555
H28 C32 1_555 1_555
C33 N1 1_555 1_555
H29 C33 1_555 1_555
H30 C33 1_555 1_555
H31 C33 1_555 1_555
C34 H32 1_555 1_555
N2 C34 1_555 1_555
O15 Zn4 1_555 1_555
C35 N2 1_555 1_555
H33 C35 1_555 1_555
H34 C35 1_555 1_555
H35 C35 1_555 1_555
C36 N2 1_555 1_555
H36 C36 1_555 1_555
H37 C36 1_555 1_555
H38 C36 1_555 1_555
O16 Zn5 1_555 1_555
Zn5 O17 1_555 1_555
Zn6 O16 1_555 1_555
Zn7 O16 1_555 1_555
Zn8 O16 1_555 1_555
O17 C37 1_555 1_555
C37 O18 1_555 1_555
O18 Zn8 1_555 1_555
C38 C37 1_555 1_555
C39 C38 1_555 1_555
H39 C39 1_555 1_555
C40 C38 1_555 1_555
C41 C40 1_555 1_555
H40 C41 1_555 1_555
H41 C41 1_555 1_555
H42 C41 1_555 1_555
O19 Zn5 1_555 1_555
C42 O19 1_555 1_555
O20 Zn6 1_555 1_555
C43 C42 1_555 1_555
C44 C43 1_555 1_555
H43 C44 1_555 1_555
C45 C44 1_555 1_555
C46 C45 1_555 1_555
H44 C46 1_555 1_555
H45 C46 1_555 1_555
H46 C46 1_555 1_555
O21 Zn6 1_555 1_555
O22 Zn7 1_555 1_555
C47 O21 1_555 1_555
C48 C47 1_555 1_555
C49 C48 1_555 1_555
C50 C49 1_555 1_555
H47 C50 1_555 1_555
C51 C49 1_555 1_555
H48 C51 1_555 1_555
H49 C51 1_555 1_555
H50 C51 1_555 1_555
C52 O23 1_555 1_555
O23 Zn7 1_555 1_555
O24 Zn8 1_555 1_555
C53 C52 1_555 1_555
C54 C53 1_555 1_555
C55 C53 1_555 1_555
H51 C55 1_555 1_555
C56 C54 1_555 1_555
H52 C56 1_555 1_555
H53 C56 1_555 1_555
H54 C56 1_555 1_555
O25 Zn7 1_555 1_555
C57 O25 1_555 1_555
O26 Zn5 1_555 1_555
C58 C57 1_555 1_555
C59 C58 1_555 1_555
C60 C59 1_555 1_555
H55 C60 1_555 1_555
C61 C60 1_555 1_555
C62 C61 1_555 1_555
C63 C58 1_555 1_555
H56 C63 1_555 1_555
C64 C59 1_555 1_555
H57 C64 1_555 1_555
H58 C64 1_555 1_555
H59 C64 1_555 1_555
C65 C62 1_555 1_555
H60 C65 1_555 1_555
H61 C65 1_555 1_555
H62 C65 1_555 1_555
O27 C66 1_555 1_555
C66 C61 1_555 1_555
O28 C66 1_555 1_555
O29 Zn5 1_555 1_555
C67 O29 1_555 1_555
H63 C67 1_555 1_555
N3 C67 1_555 1_555
C68 N3 1_555 1_555
H64 C68 1_555 1_555
H65 C68 1_555 1_555
H66 C68 1_555 1_555
C69 N3 1_555 1_555
H67 C69 1_555 1_555
H68 C69 1_555 1_555
H69 C69 1_555 1_555
O30 Zn5 1_555 1_555
C70 O30 1_555 1_555
H70 C70 1_555 1_555
N4 C70 1_555 1_555
C71 N4 1_555 1_555
H71 C71 1_555 1_555
H72 C71 1_555 1_555
H73 C71 1_555 1_555
C72 N4 1_555 1_555
H74 C72 1_555 1_555
H75 C72 1_555 1_555
H76 C72 1_555 1_555
Zn1A O13 1_555 1_555
Zn1C O8 1_555 1_555
Zn2A O12 1_555 1_555
Zn3A O4 1_555 1_555
Zn4A O5 1_555 1_555
Zn4C O9 1_555 1_555
O4A Zn3 1_555 1_555
O5A Zn4 1_555 1_555
O8C Zn1 1_555 1_555
O9C Zn4 1_555 1_555
O12A Zn2 1_555 1_555
O13A Zn1 1_555 1_555
O17B C37B 1_555 1_555
C37B O18B 1_555 1_555
O18B Zn8B_2 1_555 1_555
C38B C37B 1_555 1_555
C39B C40 1_555 1_555
H39B C39B 1_555 1_555
C40B C39 1_555 1_555
C41B C40B 1_555 1_555
H40B C41B 1_555 1_555
H41B C41B 1_555 1_555
H42B C41B 1_555 1_555
O19B C42B 1_555 1_555
C42B O20B 1_555 1_555
O20B Zn6B 1_555 1_555
C43B C45 1_555 1_555
C44B C43B 1_555 1_555
H43B C44B 1_555 1_555
C45B C43 1_555 1_555
C46B C45B 1_555 1_555
H44B C46B 1_555 1_555
H45B C46B 1_555 1_555
H46B C46B 1_555 1_555
O21B C47B 1_555 1_555
O22B C47B 1_555 1_555
C47B C48B 1_555 1_555
C48B C50 1_555 1_555
C49B C48B 1_555 1_555
C50B C48 1_555 1_555
H47B C50B 1_555 1_555
C51B C49B 1_555 1_555
H48B C51B 1_555 1_555
H49B C51B 1_555 1_555
H50B C51B 1_555 1_555
C52B O23B 1_555 1_555
O23B Zn7B_3 1_555 1_555
O24B C52B 1_555 1_555
C53B C52B 1_555 1_555
C54B C55 1_555 1_555
C55B C54 1_555 1_555
H51B C55B 1_555 1_555
C56B C54B 1_555 1_555
H52B C56B 1_555 1_555
H53B C56B 1_555 1_555
H54B C56B 1_555 1_555
O16B Zn5B 1_555 1_555
Zn5B O19B 1_555 1_555
Zn6B O16B 1_555 1_555
Zn7B O16B 1_555 1_555
Zn8B O16B 1_555 1_555
O25B Zn7B 1_555 1_555
C57B O25B 1_555 1_555
O26B Zn5B 1_555 1_555
C58B C57B 1_555 1_555
C59B C58B 1_555 1_555
C60B C59B 1_555 1_555
H55B C60B 1_555 1_555
C61B C60B 1_555 1_555
C62B C61B 1_555 1_555
C63B C58B 1_555 1_555
H56B C63B 1_555 1_555
C64B C59B 1_555 1_555
H57B C64B 1_555 1_555
H58B C64B 1_555 1_555
H59B C64B 1_555 1_555
C65B C62B 1_555 1_555
H60B C65B 1_555 1_555
H61B C65B 1_555 1_555
H62B C65B 1_555 1_555
O27B C66B 1_555 1_555
C66B C61B 1_555 1_555
O28B C66B 1_555 1_555
O29B Zn5B 1_555 1_555
C67B O29B 1_555 1_555
H63B C67B 1_555 1_555
N3B C67B 1_555 1_555
C68B N3B 1_555 1_555
H64B C68B 1_555 1_555
H65B C68B 1_555 1_555
H66B C68B 1_555 1_555
C69B N3B 1_555 1_555
H67B C69B 1_555 1_555
H68B C69B 1_555 1_555
H69B C69B 1_555 1_555
O30B Zn5B 1_555 1_555
C70B O30B 1_555 1_555
H70B C70B 1_555 1_555
N4B C70B 1_555 1_555
C71B N4B 1_555 1_555
H71B C71B 1_555 1_555
H72B C71B 1_555 1_555
H73B C71B 1_555 1_555
C72B N4B 1_555 1_555
H74B C72B 1_555 1_555
H75B C72B 1_555 1_555
H76B C72B 1_555 1_555
Zn5B_2 O17B 1_555 1_555
Zn6A O27B 1_555 1_555
Zn6B_2 O21B 1_555 1_555
Zn6C O27 1_555 1_555
Zn7B_2 O22B 1_555 1_555
Zn8A O28B 1_555 1_555
Zn8B_3 O24B 1_555 1_555
Zn8C O28 1_555 1_555
O17B_2 Zn5B 1_555 1_555
O18B_2 Zn8B 1_555 1_555
O21B_2 Zn6B 1_555 1_555
O22B_2 Zn7B 1_555 1_555
O23B_2 Zn7B 1_555 1_555
O24B_2 Zn8B 1_555 1_555
O27A Zn6B 1_555 1_555
O27C Zn6 1_555 1_555
O28A Zn8B 1_555 1_555
O28C Zn8 1_555 1_555
C6 C7 1_555 1_555
C11 O7 1_555 1_555
C16 C17 1_555 1_555
C21 O11 1_555 1_555
C26 C27 1_555 1_555
C34 O15 1_555 1_555
C42 O20 1_555 1_555
O22 C47 1_555 1_555
C52 O24 1_555 1_555
C57 O26 1_555 1_555
C62 C63 1_555 1_555
C38B C39B 1_555 1_555
C38B C40B 1_555 1_555
C42B C43B 1_555 1_555
C44B C45B 1_555 1_555
C49B C50B 1_555 1_555
C53B C54B 1_555 1_555
C53B C55B 1_555 1_555
C57B O26B 1_555 1_555
C62B C63B 1_555 1_555

#END
