
#######################################################################
#
#                 Cambridge Crystallographic Data Centre
#                                CCDC 
#
#######################################################################
#
# If this CIF has been generated from an entry in the Cambridge 
# Structural Database, then it will include bibliographic, chemical, 
# crystal, experimental, refinement or atomic coordinate data resulting 
# from the CCDC's data processing and validation procedures.
#
#######################################################################

data_XICYIT
_chemical_formula_moiety         '(C30 H10 O32 S5 Zr6)n'
_chemical_name_systematic        
catena-[pentakis(\m~4~-thiophene-2,5-dicarboxylato)-octakis(\m~3~-oxo)-tetraoxo-hexa-zirconium]
_symmetry_cell_setting           orthorhombic
_symmetry_space_group_name_H-M   'P 21 21 21'
_symmetry_Int_Tables_number      19
_space_group_name_Hall           'P 2ac 2ab'
loop_
_symmetry_equiv_pos_site_id
_symmetry_equiv_pos_as_xyz
1 x,y,z
2 1/2-x,-y,1/2+z
3 -x,1/2+y,1/2-z
4 1/2+x,1/2-y,-z
_cell_length_a                   13.570(3)
_cell_length_b                   19.800(4)
_cell_length_c                   28.390(6)
_cell_angle_alpha                90
_cell_angle_beta                 90
_cell_angle_gamma                90
_cell_volume                     7628
_exptl_crystal_colour            colorless
_exptl_crystal_description       octahedron
_cell_formula_units_Z            4
loop_
_atom_site_label
_atom_site_type_symbol
_atom_site_fract_x
_atom_site_fract_y
_atom_site_fract_z
_atom_site_U_iso_or_equiv
_atom_site_thermal_displace_type
Zr1 Zr 0.80627(11) 0.87807(6) 0.87340(8) 0.0219 Uani
Zr2 Zr 0.69610(11) 1.11690(6) 0.87640(8) 0.0222 Uani
Zr3 Zr 0.8575(3) 1.02261(18) 0.80385(12) 0.0163 Uani
Zr4 Zr 0.6125(3) 0.9700(2) 0.82131(14) 0.0178 Uani
Zr5 Zr 0.6463(3) 0.9722(3) 0.94412(19) 0.0195 Uani
Zr6 Zr 0.8907(3) 1.0247(2) 0.92907(19) 0.0195 Uani
S1 S 0.5440(6) 0.7439(3) 0.7310(3) 0.0483 Uani
S2 S 0.5630(5) 0.7479(3) 1.0231(3) 0.0460 Uani
S3 S 0.9784(6) 1.2554(3) 1.0066(3) 0.0530 Uani
S4 S 0.9714(7) 1.2509(3) 0.7414(3) 0.0617 Uani
S5 S 0.7729(5) 1.0086(4) 0.6246(3) 0.0593 Uani
O1 O 0.6367(9) 0.9021(6) 0.8811(6) 0.0303 Uani
O2 O 0.7830(11) 0.9466(7) 0.9264(6) 0.0320 Uani
O3 O 0.9217(10) 0.9655(6) 0.8662(5) 0.0307 Uani
O4 O 0.7644(12) 0.9442(7) 0.8220(6) 0.0350 Uani
O5 O 0.7037(11) 1.0638(7) 0.8064(6) 0.0320 Uani
O6 O 0.6201(9) 1.0264(5) 0.8797(7) 0.0363 Uani
O7 O 0.7336(11) 1.0655(7) 0.9443(6) 0.0350 Uani
O8 O 0.8348(11) 1.0735(6) 0.8700(7) 0.0363 Uani
O9 O 1.0142(14) 1.0475(10) 0.7985(10) 0.0703 Uani
O10 O 1.0370(13) 1.0585(8) 0.9182(8) 0.0510 Uani
O11 O 0.4902(13) 0.9353(8) 0.9468(9) 0.0600 Uani
O12 O 0.4620(15) 0.9332(10) 0.8301(9) 0.0693 Uani
O13 O 0.7481(12) 0.8076(8) 0.9253(6) 0.0343 Uani
O14 O 0.6531(11) 0.8643(7) 0.9737(6) 0.0343 Uani
O15 O 0.4353(11) 0.6561(7) 1.0830(6) 0.0330 Uani
O16 O 0.4833(12) 0.5598(7) 1.0447(6) 0.0380 Uani
O17 O 1.0888(12) 1.3429(8) 0.6817(6) 0.0390 Uani
O18 O 1.0660(14) 1.4337(8) 0.7281(7) 0.0523 Uani
O19 O 0.7264(12) 0.8013(7) 0.8287(6) 0.0307 Uani
O20 O 0.6115(11) 0.8625(6) 0.7886(6) 0.0360 Uani
O21 O 0.8017(15) 1.0125(8) 0.7327(6) 0.0470 Uani
O22 O 0.6409(14) 0.9776(7) 0.7430(6) 0.0437 Uani
O23 O 0.6357(16) 0.9835(9) 0.5069(8) 0.0610 Uani
O24 O 0.7946(13) 1.0187(8) 0.5180(7) 0.0450 Uani
O25 O 0.4896(12) 0.5550(8) 0.6993(6) 0.0370 Uani
O26 O 0.4326(12) 0.6507(9) 0.6653(6) 0.0370 Uani
O27 O 1.0493(14) 1.4448(7) 1.0285(6) 0.0417 Uani
O28 O 1.0848(11) 1.3501(8) 1.0705(6) 0.0317 Uani
O29 O 0.8977(14) 1.1350(7) 0.9551(6) 0.0433 Uani
O30 O 0.7791(12) 1.1909(8) 0.9192(6) 0.0377 Uani
O31 O 0.8693(12) 1.1309(6) 0.7805(6) 0.0410 Uani
O32 O 0.7657(13) 1.1927(8) 0.8281(6) 0.0350 Uani
C1 C 0.6616(15) 0.8082(10) 0.8017(7) 0.0393 Uani
C2 C 0.6326(19) 0.7451(12) 0.7750(11) 0.0470 Uani
C3 C 0.659(3) 0.6851(16) 0.7865(15) 0.1073 Uani
H1 H 0.7049 0.6763 0.8102 0.1280 Uiso
C4 C 0.613(3) 0.6324(14) 0.7594(12) 0.0837 Uani
H2 H 0.6223 0.5865 0.7646 0.0990 Uiso
C5 C 0.5519(19) 0.6580(12) 0.7248(10) 0.0470 Uani
C6 C 0.4873(18) 0.6180(10) 0.6952(10) 0.0393 Uani
C7 C 0.6834(13) 0.8142(10) 0.9579(7) 0.0323 Uani
C8 C 0.648(2) 0.7464(11) 0.9774(10) 0.0507 Uani
C9 C 0.673(2) 0.6831(11) 0.9662(11) 0.0617 Uani
H3 H 0.7224 0.6731 0.9447 0.0760 Uiso
C10 C 0.617(2) 0.6321(13) 0.9901(14) 0.0793 Uani
H4 H 0.6230 0.5860 0.9844 0.0940 Uiso
C11 C 0.555(2) 0.6606(12) 1.0224(10) 0.0507 Uani
C12 C 0.4879(17) 0.6238(10) 1.0539(9) 0.0323 Uani
C13 C 0.8533(14) 1.1851(9) 0.9450(6) 0.0393 Uani
C14 C 0.890(2) 1.2548(11) 0.9655(9) 0.0407 Uani
C15 C 0.850(3) 1.3174(13) 0.9553(14) 0.0863 Uani
H5 H 0.7922 1.3248 0.9383 0.1010 Uiso
C16 C 0.909(3) 1.3675(13) 0.9747(14) 0.0863 Uani
H6 H 0.9040 1.4132 0.9675 0.1010 Uiso
C17 C 0.9785(19) 1.3408(11) 1.0063(9) 0.0407 Uani
C18 C 1.0471(19) 1.3812(11) 1.0385(9) 0.0407 Uani
C19 C 0.8325(15) 1.1845(11) 0.7994(7) 0.0410 Uani
C20 C 0.882(2) 1.2477(11) 0.7860(12) 0.0707 Uani
C21 C 0.865(2) 1.3111(13) 0.8038(11) 0.0583 Uani
H7 H 0.8209 1.3206 0.8281 0.0700 Uiso
C22 C 0.925(2) 1.3622(13) 0.7791(11) 0.0583 Uani
H8 H 0.9211 1.4084 0.7846 0.0700 Uiso
C23 C 0.984(3) 1.3343(16) 0.7487(12) 0.0713 Uani
C24 C 1.0482(18) 1.3754(11) 0.7164(10) 0.0410 Uani
C25 C 0.715(2) 0.9945(6) 0.7202(9) 0.0447 Uani
C26 C 0.6905(19) 0.9917(13) 0.6704(11) 0.0607 Uani
C27 C 0.599(2) 0.985(2) 0.6487(11) 0.0903 Uani
H9 H 0.5418 0.9850 0.6666 0.1100 Uiso
C28 C 0.594(3) 0.979(2) 0.5996(11) 0.0903 Uani
H10 H 0.5401 0.9654 0.5819 0.1100 Uiso
C29 C 0.688(3) 0.9975(15) 0.5820(11) 0.0640 Uani
C30 C 0.708(2) 1.0006(12) 0.5317(9) 0.0447 Uani
Zr1B Zr 1.19373(11) 1.37807(6) 0.62660(8) 0.0219 Uani
Zr1C Zr 0.30627(11) 0.62193(6) 1.12660(8) 0.0219 Uani
Zr2B Zr 0.30390(11) 0.61690(6) 0.62360(8) 0.0222 Uani
Zr2C Zr 1.19610(11) 1.38310(6) 1.12360(8) 0.0222 Uani
Zr3B Zr 1.1425(3) 1.52261(18) 0.69615(12) 0.0163 Uani
Zr4B Zr 0.3875(3) 0.4700(2) 0.67869(14) 0.0178 Uani
Zr5A Zr 0.8537(3) 1.0278(3) 0.44412(19) 0.0195 Uani
Zr5C Zr 1.1463(3) 1.5278(3) 1.05588(19) 0.0195 Uani
Zr6A Zr 0.6093(3) 0.9753(2) 0.42907(19) 0.0195 Uani
Zr6C Zr 0.3907(3) 0.4753(2) 1.07093(19) 0.0195 Uani
O15C O 0.9353(11) 0.8439(7) 0.9170(6) 0.0330 Uani
O16C O 0.9833(12) 0.9402(7) 0.9553(6) 0.0380 Uani
O17B O 0.9112(12) 0.8429(8) 0.8183(6) 0.0390 Uani
O18B O 0.9340(14) 0.9337(8) 0.7719(7) 0.0523 Uani
O23A O 0.8643(16) 1.0165(9) 1.0069(8) 0.0610 Uani
O24A O 0.7054(13) 0.9813(8) 1.0180(7) 0.0450 Uani
O25B O 0.5104(12) 1.0550(8) 0.8007(6) 0.0370 Uani
O26B O 0.5674(12) 1.1507(9) 0.8347(6) 0.0370 Uani
O27C O 0.5493(14) 1.0552(7) 0.9715(6) 0.0417 Uani
O28C O 0.5848(11) 1.1499(8) 0.9295(6) 0.0317 Uani
Zr7? Zr 0.8721(13) 1.0241(8) 0.8172(5) 0.0163 Uani
Zr8? Zr 0.6284(13) 0.9738(9) 0.8094(6) 0.0178 Uani
Zr9? Zr 0.6233(12) 0.9673(11) 0.9382(8) 0.0195 Uani
Zr10? Zr 0.8684(12) 1.0324(9) 0.9342(8) 0.0195 Uani
loop_
_atom_site_aniso_label
_atom_site_aniso_U_11
_atom_site_aniso_U_22
_atom_site_aniso_U_33
_atom_site_aniso_U_23
_atom_site_aniso_U_13
_atom_site_aniso_U_12
Zr1 0.0313(8) 0.0104(6) 0.0241(10) 0.0006(8) 0.0002(10) 0.0002(5)
Zr2 0.0319(8) 0.0103(6) 0.0243(10) -0.0011(8) 0.0011(10) 0.0002(5)
Zr3 0.0313(17) 0.0125(8) 0.005(2) -0.0007(13) -0.0044(12) 0.0015(9)
Zr4 0.0282(18) 0.0133(9) 0.012(2) 0.0026(13) 0.0056(11) -0.0018(11)
Zr5 0.023(2) 0.0136(11) 0.022(2) -0.0009(11) -0.0003(15) -0.0041(16)
Zr6 0.021(2) 0.0142(14) 0.0233(18) -0.0052(11) -0.0009(15) 0.0064(13)
S1 0.063(4) 0.021(3) 0.061(5) -0.006(3) -0.029(3) -0.003(3)
S2 0.059(4) 0.026(3) 0.053(5) 0.008(3) 0.019(3) -0.003(3)
S3 0.067(4) 0.026(3) 0.066(5) -0.008(3) -0.030(4) -0.001(3)
S4 0.079(5) 0.025(3) 0.081(6) -0.003(3) 0.048(5) -0.009(3)
S5 0.062(4) 0.076(4) 0.040(4) -0.003(4) 0.002(4) 0.000(3)
O1 0.032(7) 0.022(6) 0.037(10) -0.006(6) 0.000(7) 0.007(5)
O2 0.041(6) 0.022(4) 0.033(8) -0.007(4) 0.004(5) 0.001(4)
O3 0.046(8) 0.016(5) 0.030(10) -0.001(5) 0.005(6) -0.010(5)
O4 0.040(5) 0.028(5) 0.037(8) 0.012(5) -0.007(5) 0.001(4)
O5 0.041(6) 0.022(4) 0.033(8) -0.007(4) 0.004(5) 0.001(4)
O6 0.036(7) 0.010(5) 0.063(11) 0.004(7) 0.005(8) 0.007(5)
O7 0.040(5) 0.028(5) 0.037(8) 0.012(5) -0.007(5) 0.001(4)
O8 0.043(8) 0.020(6) 0.046(11) 0.008(7) -0.007(8) 0.003(6)
O9 0.042(10) 0.059(12) 0.11(2) 0.020(12) 0.004(11) -0.011(9)
O10 0.038(9) 0.032(8) 0.083(16) -0.003(8) 0.001(9) -0.009(7)
O11 0.043(10) 0.023(7) 0.114(18) -0.013(9) 0.047(11) -0.010(7)
O12 0.045(11) 0.043(10) 0.12(2) -0.001(11) -0.012(11) -0.012(8)
O13 0.041(6) 0.024(5) 0.038(8) 0.009(4) 0.010(5) -0.006(5)
O14 0.041(6) 0.024(5) 0.038(8) 0.009(4) 0.010(5) -0.006(5)
O15 0.035(8) 0.018(6) 0.046(11) 0.009(6) 0.013(7) -0.006(6)
O16 0.049(9) 0.017(6) 0.048(12) 0.005(6) 0.013(8) -0.005(6)
O17 0.042(9) 0.037(8) 0.038(12) 0.007(7) 0.018(7) -0.007(7)
O18 0.057(11) 0.035(9) 0.065(15) 0.007(8) 0.025(10) -0.014(8)
O19 0.037(9) 0.022(7) 0.033(10) -0.010(6) 0.000(7) -0.012(6)
O20 0.036(8) 0.012(6) 0.060(12) -0.012(6) -0.014(8) -0.006(6)
O21 0.065(12) 0.041(9) 0.035(12) 0.000(7) 0.011(8) 0.019(9)
O22 0.068(11) 0.028(7) 0.035(11) 0.004(6) -0.009(8) -0.006(8)
O23 0.071(13) 0.052(11) 0.060(15) -0.003(9) 0.004(10) 0.019(10)
O24 0.045(9) 0.031(8) 0.059(13) -0.006(8) 0.015(8) -0.001(8)
O25 0.041(6) 0.040(6) 0.030(7) -0.006(5) -0.009(5) -0.014(5)
O26 0.041(6) 0.040(6) 0.030(7) -0.006(5) -0.009(5) -0.014(5)
O27 0.070(11) 0.016(6) 0.039(11) 0.002(6) -0.028(8) -0.013(7)
O28 0.036(8) 0.026(7) 0.033(11) -0.017(6) -0.016(6) 0.007(6)
O29 0.056(10) 0.020(7) 0.054(13) -0.007(7) -0.007(9) -0.012(7)
O30 0.049(10) 0.018(7) 0.046(12) -0.014(7) -0.015(8) -0.001(7)
O31 0.055(10) 0.008(6) 0.060(12) 0.008(6) 0.025(9) -0.004(6)
O32 0.043(9) 0.026(8) 0.036(11) 0.007(6) 0.006(7) -0.006(7)
C1 0.045(9) 0.016(6) 0.057(13) -0.011(7) -0.015(8) -0.009(6)
C2 0.045(10) 0.029(8) 0.067(15) -0.013(8) -0.012(9) -0.006(7)
C3 0.12(3) 0.042(16) 0.16(4) -0.03(2) -0.11(3) 0.022(19)
C4 0.13(3) 0.031(13) 0.09(3) 0.009(14) -0.09(3) -0.015(17)
C5 0.045(10) 0.029(8) 0.067(15) -0.013(8) -0.012(9) -0.006(7)
C6 0.045(9) 0.016(6) 0.057(13) -0.011(7) -0.015(8) -0.009(6)
C7 0.048(9) 0.018(6) 0.031(10) -0.002(6) 0.007(7) -0.001(6)
C8 0.074(14) 0.024(8) 0.054(14) 0.013(8) 0.031(11) 0.002(8)
C9 0.08(2) 0.015(10) 0.09(3) 0.016(12) 0.057(18) 0.008(11)
C10 0.068(19) 0.020(11) 0.15(4) 0.023(15) 0.06(2) 0.005(12)
C11 0.074(14) 0.024(8) 0.054(14) 0.013(8) 0.031(11) 0.002(8)
C12 0.048(9) 0.018(6) 0.031(10) -0.002(6) 0.007(7) -0.001(6)
C13 0.044(12) 0.012(9) 0.062(18) -0.006(9) -0.021(12) 0.002(9)
C14 0.056(9) 0.020(6) 0.046(10) -0.008(5) -0.016(7) -0.006(6)
C15 0.11(2) 0.019(8) 0.13(2) -0.010(10) -0.066(18) -0.007(11)
C16 0.11(2) 0.019(8) 0.13(2) -0.010(10) -0.066(18) -0.007(11)
C17 0.056(9) 0.020(6) 0.046(10) -0.008(5) -0.016(7) -0.006(6)
C18 0.056(9) 0.020(6) 0.046(10) -0.008(5) -0.016(7) -0.006(6)
C19 0.047(10) 0.025(7) 0.051(13) 0.009(7) 0.012(8) -0.024(7)
C20 0.08(2) 0.012(10) 0.12(3) -0.005(12) 0.06(2) -0.014(11)
C21 0.081(15) 0.033(9) 0.061(14) -0.006(8) 0.036(11) -0.018(9)
C22 0.081(15) 0.033(9) 0.061(14) -0.006(8) 0.036(11) -0.018(9)
C23 0.09(2) 0.064(19) 0.06(2) -0.003(15) 0.044(18) -0.052(18)
C24 0.047(10) 0.025(7) 0.051(13) 0.009(7) 0.012(8) -0.024(7)
C25 0.069(10) 0.045(8) 0.020(10) 0.004(8) -0.009(10) -0.001(8)
C26 0.054(16) 0.048(14) 0.08(2) 0.006(13) -0.005(14) -0.028(12)
C27 0.066(12) 0.16(2) 0.045(14) 0.002(19) 0.003(11) -0.029(15)
C28 0.066(12) 0.16(2) 0.045(14) 0.002(19) 0.003(11) -0.029(15)
C29 0.09(2) 0.08(2) 0.022(19) 0.002(12) 0.024(14) -0.012(16)
C30 0.069(10) 0.045(8) 0.020(10) 0.004(8) -0.009(10) -0.001(8)
Zr1B 0.0313 0.0104 0.0241 -0.0006 0.0002 -0.0002
Zr1C 0.0313 0.0104 0.0241 0.0006 -0.0002 -0.0002
Zr2B 0.0319 0.0103 0.0243 0.0011 0.0011 -0.0002
Zr2C 0.0319 0.0103 0.0243 -0.0011 -0.0011 -0.0002
Zr3B 0.0313 0.0125 0.005 0.0007 -0.0044 -0.0015
Zr4B 0.0282 0.0133 0.012 -0.0026 0.0056 0.0018
Zr5A 0.023 0.0136 0.022 0.0009 0.0003 -0.0041
Zr5C 0.023 0.0136 0.022 -0.0009 0.0003 0.0041
Zr6A 0.021 0.0142 0.0233 0.0052 0.0009 0.0064
Zr6C 0.021 0.0142 0.0233 -0.0052 0.0009 -0.0064
O15C 0.035 0.018 0.046 0.009 -0.013 0.006
O16C 0.049 0.017 0.048 0.005 -0.013 0.005
O17B 0.042 0.037 0.038 -0.007 0.018 0.007
O18B 0.057 0.035 0.065 -0.007 0.025 0.014
O23A 0.071 0.052 0.06 0.003 -0.004 0.019
O24A 0.045 0.031 0.059 0.006 -0.015 -0.001
O25B 0.041 0.04 0.03 0.006 -0.009 0.014
O26B 0.041 0.04 0.03 0.006 -0.009 0.014
O27C 0.07 0.016 0.039 0.002 0.028 0.013
O28C 0.036 0.026 0.033 -0.017 0.016 -0.007
Zr7? 0.0313(17) 0.0125(8) 0.005(2) -0.0007(13) -0.0044(12) 0.0015(9)
Zr8? 0.0282(18) 0.0133(9) 0.012(2) 0.0026(13) 0.0056(11) -0.0018(11)
Zr9? 0.023(2) 0.0136(11) 0.022(2) -0.0009(11) -0.0003(15) -0.0041(16)
Zr10? 0.021(2) 0.0142(14) 0.0233(18) -0.0052(11) -0.0009(15) 0.0064(13)
loop_
_geom_bond_atom_site_label_1
_geom_bond_atom_site_label_2
_geom_bond_site_symmetry_1
_geom_bond_site_symmetry_2
Zr1 O1 1_555 1_555
Zr2 O5 1_555 1_555
Zr3 O3 1_555 1_555
Zr4 O1 1_555 1_555
Zr5 O1 1_555 1_555
Zr6 O2 1_555 1_555
S1 C2 1_555 1_555
S2 C8 1_555 1_555
S3 C14 1_555 1_555
S4 C20 1_555 1_555
S5 C26 1_555 1_555
O2 Zr1 1_555 1_555
O3 Zr1 1_555 1_555
O4 Zr1 1_555 1_555
O5 Zr3 1_555 1_555
O6 Zr2 1_555 1_555
O7 Zr2 1_555 1_555
O8 Zr2 1_555 1_555
O9 Zr3 1_555 1_555
O10 Zr6 1_555 1_555
O11 Zr5 1_555 1_555
O12 Zr4 1_555 1_555
O13 Zr1 1_555 1_555
O14 Zr5 1_555 1_555
O15 C12 1_555 1_555
O16 C12 1_555 1_555
O17 C24 1_555 1_555
O18 C24 1_555 1_555
O19 Zr1 1_555 1_555
O20 Zr4 1_555 1_555
O21 Zr3 1_555 1_555
O22 Zr4 1_555 1_555
O23 C30 1_555 1_555
O24 C30 1_555 1_555
O25 C6 1_555 1_555
O26 C6 1_555 1_555
O27 C18 1_555 1_555
O28 C18 1_555 1_555
O29 Zr6 1_555 1_555
O30 Zr2 1_555 1_555
O31 Zr3 1_555 1_555
O32 Zr2 1_555 1_555
C1 O19 1_555 1_555
C2 C1 1_555 1_555
C3 C2 1_555 1_555
H1 C3 1_555 1_555
C4 C3 1_555 1_555
H2 C4 1_555 1_555
C5 S1 1_555 1_555
C6 C5 1_555 1_555
C7 O13 1_555 1_555
C8 C7 1_555 1_555
C9 C8 1_555 1_555
H3 C9 1_555 1_555
C10 C9 1_555 1_555
H4 C10 1_555 1_555
C11 S2 1_555 1_555
C12 C11 1_555 1_555
C13 O29 1_555 1_555
C14 C13 1_555 1_555
C15 C14 1_555 1_555
H5 C15 1_555 1_555
C16 C15 1_555 1_555
H6 C16 1_555 1_555
C17 S3 1_555 1_555
C18 C17 1_555 1_555
C19 O31 1_555 1_555
C20 C19 1_555 1_555
C21 C20 1_555 1_555
H7 C21 1_555 1_555
C22 C21 1_555 1_555
H8 C22 1_555 1_555
C23 S4 1_555 1_555
C24 C23 1_555 1_555
C25 O21 1_555 1_555
C26 C25 1_555 1_555
C27 C26 1_555 1_555
H9 C27 1_555 1_555
C28 C27 1_555 1_555
H10 C28 1_555 1_555
C29 S5 1_555 1_555
C30 C29 1_555 1_555
Zr1B O17 1_555 1_555
Zr1C O15 1_555 1_555
Zr2B O26 1_555 1_555
Zr2C O28 1_555 1_555
Zr3B O18 1_555 1_555
Zr4B O25 1_555 1_555
Zr5A O24 1_555 1_555
Zr5C O27 1_555 1_555
Zr6A O23 1_555 1_555
Zr6C O16 1_555 1_555
O15C Zr1 1_555 1_555
O16C Zr6 1_555 1_555
O17B Zr1 1_555 1_555
O18B Zr3 1_555 1_555
O23A Zr6 1_555 1_555
O24A Zr5 1_555 1_555
O25B Zr4 1_555 1_555
O26B Zr2 1_555 1_555
O27C Zr5 1_555 1_555
O28C Zr2 1_555 1_555
Zr3 O4 1_555 1_555
Zr3 O8 1_555 1_555
Zr4 O4 1_555 1_555
Zr4 O5 1_555 1_555
Zr4 O6 1_555 1_555
Zr5 O2 1_555 1_555
Zr5 O6 1_555 1_555
Zr5 O7 1_555 1_555
Zr6 O3 1_555 1_555
Zr6 O7 1_555 1_555
Zr6 O8 1_555 1_555
O14 C7 1_555 1_555
O20 C1 1_555 1_555
O22 C25 1_555 1_555
O30 C13 1_555 1_555
O32 C19 1_555 1_555
C4 C5 1_555 1_555
C10 C11 1_555 1_555
C16 C17 1_555 1_555
C22 C23 1_555 1_555
C28 C29 1_555 1_555

#END
